data/nesta/nesta_case1394sop_eir.m
%%%%%%%%%%%%%%%%%%%%%%%%%%%%%%%%%%%%%%%%%%%%%%%%%%%%%%%%%%%%%%%%%%%%%%%%%%%
%%%%                                                                  %%%%%
%%%%      NICTA Energy System Test Case Archive (NESTA) - v0.1.5      %%%%%
%%%%              Optimal Power Flow - Typical Operation              %%%%%
%%%%                       30 - October - 2014                        %%%%%
%%%%                                                                  %%%%%
%%%%%%%%%%%%%%%%%%%%%%%%%%%%%%%%%%%%%%%%%%%%%%%%%%%%%%%%%%%%%%%%%%%%%%%%%%%
%
%  EIRGrid - Summer Night Valley 2013
%
%  Based on data from:
%    "Ten Year Transmission Forecast Statement 2013"
%    http://www.eirgrid.com/transmission/transmissionforecaststatement/
%    Accessed: 25/8/2014
%  
%  WARNING: This is a preliminary translation from a PSS/E-30 file.
%    The network produces AC Power Flow solutions, but has not been 
%    validated to PSS/E.  See the end of this file for detailed 
%    translation notes.
%
function mpc = nesta_case1394sop_eir
mpc.version = '2';
mpc.baseMVA = 100.0;

%% bus data
%	bus_i	type	Pd	Qd	Gs	Bs	area	Vm	Va	baseKV	zone	Vmax	Vmin
mpc.bus = [
	10	 1	 21.13	 3.71	 0.0	 0.0	 2	     1.0541	     0.0000	 38.0	 1	     1.1500	     0.8500;
	11	 1	 11.99	 5.26	 0.0	 0.0	 2	     1.0527	     0.0000	 38.0	 1	     1.1500	     0.8500;
	12	 1	 21.13	 3.04	 0.0	 0.0	 1	     1.0445	     0.0000	 38.0	 1	     1.1500	     0.8500;
	13	 1	 25.89	 2.2	 0.0	 0.0	 1	     1.0463	     0.0000	 38.0	 1	     1.1500	     0.8500;
	14	 1	 19.41	 6.38	 0.0	 0.0	 2	     1.0347	     0.0000	 38.0	 1	     1.1500	     0.8500;
	15	 1	 16.59	 5.46	 0.0	 0.0	 2	     1.0369	     0.0000	 38.0	 1	     1.1500	     0.8500;
	1021	 1	 0.0	 0.0	 0.0	 0.0	 4	     1.0091	     0.0000	 110.0	 1	     1.1500	     0.8500;
	1041	 1	 0.47	 0.1	 0.0	 0.0	 3	     0.9999	     0.0000	 110.0	 1	     1.1500	     0.8500;
	1042	 1	 0.0	 0.0	 0.0	 0.0	 3	     1.0000	     0.0000	 220.0	 1	     1.1500	     0.8500;
	1052	 1	 0.0	 0.0	 0.0	 0.0	 3	     0.9960	     0.0000	 220.0	 1	     1.1500	     0.8500;
	1061	 1	 0.0	 0.0	 0.0	 0.0	 9	     1.0028	     0.0000	 110.0	 1	     1.1500	     0.8500;
	1062	 1	 0.0	 0.0	 0.0	 0.0	 3	     1.0000	     0.0000	 220.0	 1	     1.1500	     0.8500;
	1071	 1	 0.0	 0.0	 0.0	 0.0	 4	     1.0113	     0.0000	 110.0	 1	     1.1500	     0.8500;
	1072	 1	 0.0	 0.0	 0.0	 0.0	 3	     1.0000	     0.0000	 220.0	 1	     1.1500	     0.8500;
	1081	 1	 0.0	 0.0	 0.0	 0.0	 7	     1.0109	     0.0000	 110.0	 1	     1.1500	     0.8500;
	1101	 1	 16.62	 4.98	 0.0	 0.0	 5	     0.9941	     0.0000	 110.0	 1	     1.1500	     0.8500;
	1121	 1	 0.0	 0.0	 0.0	 0.0	 6	     1.0143	     0.0000	 110.0	 1	     1.1500	     0.8500;
	1122	 1	 0.0	 0.0	 0.0	 0.0	 6	     1.0107	     0.0000	 220.0	 1	     1.1500	     0.8500;
	1141	 1	 0.0	 0.0	 0.0	 0.0	 9	     0.9956	     0.0000	 110.0	 1	     1.1500	     0.8500;
	1161	 1	 0.0	 0.0	 0.0	 0.0	 7	     1.0000	     0.0000	 110.0	 1	     1.1500	     0.8500;
	1181	 1	 0.0	 0.0	 0.0	 0.0	 10	     1.0088	     0.0000	 110.0	 1	     1.1500	     0.8500;
	1201	 1	 0.0	 0.0	 0.0	 0.0	 1	     1.0333	     0.0000	 110.0	 1	     1.1500	     0.8500;
	1221	 1	 0.0	 0.0	 0.0	 0.0	 8	     1.0146	     0.0000	 110.0	 1	     1.1500	     0.8500;
	1231	 1	 0.0	 0.0	 0.0	 0.0	 6	     1.0136	     0.0000	 110.0	 1	     1.1500	     0.8500;
	1251	 1	 0.0	 0.0	 0.0	 0.0	 4	     1.0118	     0.0000	 110.0	 1	     1.1500	     0.8500;
	1271	 1	 0.0	 0.0	 0.0	 0.0	 10	     1.0190	     0.0000	 110.0	 1	     1.1500	     0.8500;
	1281	 1	 0.0	 0.0	 0.0	 0.0	 3	     1.0000	     0.0000	 110.0	 1	     1.1500	     0.8500;
	1301	 1	 0.0	 0.0	 0.0	 0.0	 6	     1.0113	     0.0000	 110.0	 1	     1.1500	     0.8500;
	1321	 1	 0.0	 0.0	 0.0	 0.0	 8	     1.0060	     0.0000	 110.0	 1	     1.1500	     0.8500;
	1341	 1	 0.0	 0.0	 0.0	 0.0	 9	     0.9937	     0.0000	 110.0	 1	     1.1500	     0.8500;
	1351	 1	 0.0	 0.0	 0.0	 0.0	 8	     1.0032	     0.0000	 110.0	 1	     1.1500	     0.8500;
	1361	 1	 0.0	 0.0	 0.0	 0.0	 5	     0.9974	     0.0000	 110.0	 1	     1.1500	     0.8500;
	1381	 1	 0.0	 0.0	 0.0	 0.0	 3	     0.9983	     0.0000	 110.0	 1	     1.1500	     0.8500;
	1391	 1	 0.0	 0.0	 0.0	 0.0	 3	     0.9949	     0.0000	 110.0	 1	     1.1500	     0.8500;
	1401	 1	 0.0	 0.0	 0.0	 0.0	 9	     1.0171	     0.0000	 110.0	 1	     1.1500	     0.8500;
	1421	 1	 0.0	 0.0	 0.0	 0.0	 1	     1.0069	     0.0000	 110.0	 1	     1.1500	     0.8500;
	1441	 1	 0.0	 0.0	 0.0	 0.0	 3	     0.9911	     0.0000	 110.0	 1	     1.1500	     0.8500;
	1451	 1	 0.0	 0.0	 0.0	 0.0	 1	     1.0169	     0.0000	 110.0	 1	     1.1500	     0.8500;
	1461	 1	 0.0	 0.0	 0.0	 0.0	 5	     0.9964	     0.0000	 110.0	 1	     1.1500	     0.8500;
	1481	 1	 0.0	 0.0	 0.0	 0.0	 5	     1.0042	     0.0000	 110.0	 1	     1.1500	     0.8500;
	1501	 1	 0.0	 0.0	 0.0	 0.0	 3	     0.9909	     0.0000	 110.0	 1	     1.1500	     0.8500;
	1541	 1	 0.0	 0.0	 0.0	 0.0	 6	     1.0127	     0.0000	 110.0	 1	     1.1500	     0.8500;
	1551	 1	 0.0	 0.0	 0.0	 0.0	 3	     1.0000	     0.0000	 110.0	 1	     1.1500	     0.8500;
	1581	 1	 0.0	 0.0	 0.0	 0.0	 1	     1.0332	     0.0000	 110.0	 1	     1.1500	     0.8500;
	1601	 1	 0.0	 0.0	 0.0	 0.0	 3	     1.0002	     0.0000	 110.0	 1	     1.1500	     0.8500;
	1602	 1	 0.0	 0.0	 0.0	 0.0	 3	     1.0057	     0.0000	 220.0	 1	     1.1500	     0.8500;
	1611	 1	 0.0	 0.0	 0.0	 0.0	 7	     1.0010	     0.0000	 110.0	 1	     1.1500	     0.8500;
	1621	 1	 0.0	 0.0	 0.0	 0.0	 3	     0.9961	     0.0000	 110.0	 1	     1.1500	     0.8500;
	1631	 1	 0.0	 0.0	 0.0	 0.0	 9	     1.0029	     0.0000	 110.0	 1	     1.1500	     0.8500;
	1641	 1	 0.0	 0.0	 0.0	 0.0	 9	     1.0259	     0.0000	 110.0	 1	     1.1500	     0.8500;
	1642	 1	 0.0	 0.0	 0.0	 0.0	 9	     1.0296	     0.0000	 220.0	 1	     1.1500	     0.8500;
	1651	 1	 0.0	 0.0	 0.0	 0.0	 7	     1.0078	     0.0000	 110.0	 1	     1.1500	     0.8500;
	1661	 1	 0.0	 0.0	 0.0	 0.0	 9	     1.0300	     0.0000	 110.0	 1	     1.1500	     0.8500;
	1681	 1	 0.0	 0.0	 0.0	 0.0	 3	     0.9985	     0.0000	 110.0	 1	     1.1500	     0.8500;
	1691	 1	 0.0	 0.0	 0.0	 0.0	 1	     1.0074	     0.0000	 110.0	 1	     1.1500	     0.8500;
	1701	 1	 0.0	 0.0	 0.0	 0.0	 9	     1.0051	     0.0000	 110.0	 1	     1.1500	     0.8500;
	1711	 1	 0.0	 0.0	 0.0	 0.0	 1	     1.0353	     0.0000	 110.0	 1	     1.1500	     0.8500;
	1721	 1	 0.0	 0.0	 0.0	 0.0	 5	     0.9953	     0.0000	 110.0	 1	     1.1500	     0.8500;
	1731	 1	 0.0	 0.0	 0.0	 0.0	 1	     1.0353	     0.0000	 110.0	 1	     1.1500	     0.8500;
	1741	 1	 0.0	 0.0	 0.0	 0.0	 2	     1.0071	     0.0000	 110.0	 1	     1.1500	     0.8500;
	1742	 1	 0.0	 0.0	 0.0	 0.0	 2	     1.0111	     0.0000	 220.0	 1	     1.1500	     0.8500;
	1761	 1	 0.0	 0.0	 0.0	 0.0	 9	     1.0051	     0.0000	 110.0	 1	     1.1500	     0.8500;
	1781	 1	 0.0	 0.0	 0.0	 0.0	 7	     0.9996	     0.0000	 110.0	 1	     1.1500	     0.8500;
	1801	 1	 0.0	 0.0	 0.0	 0.0	 1	     1.0075	     0.0000	 110.0	 1	     1.1500	     0.8500;
	1821	 1	 0.0	 0.0	 0.0	 0.0	 9	     1.0214	     0.0000	 110.0	 1	     1.1500	     0.8500;
	1841	 1	 0.0	 0.0	 0.0	 0.0	 6	     1.0125	     0.0000	 110.0	 1	     1.1500	     0.8500;
	1861	 1	 0.0	 0.0	 0.0	 0.0	 9	     1.0063	     0.0000	 110.0	 1	     1.1500	     0.8500;
	1871	 1	 0.0	 0.0	 0.0	 0.0	 2	     1.0187	     0.0000	 110.0	 1	     1.1500	     0.8500;
	1881	 1	 0.0	 0.0	 0.0	 0.0	 3	     1.0029	     0.0000	 110.0	 1	     1.1500	     0.8500;
	1901	 1	 0.0	 0.0	 0.0	 0.0	 6	     1.0229	     0.0000	 110.0	 1	     1.1500	     0.8500;
	1921	 1	 0.0	 0.0	 0.0	 0.0	 3	     0.9985	     0.0000	 110.0	 1	     1.1500	     0.8500;
	1931	 1	 0.0	 0.0	 0.0	 0.0	 9	     1.0081	     0.0000	 110.0	 1	     1.1500	     0.8500;
	1941	 1	 0.0	 0.0	 0.0	 0.0	 8	     1.0000	     0.0000	 110.0	 1	     1.1500	     0.8500;
	1951	 1	 0.0	 0.0	 0.0	 0.0	 9	     1.0287	     0.0000	 110.0	 1	     1.1500	     0.8500;
	1961	 1	 0.0	 0.0	 0.0	 0.0	 3	     0.9982	     0.0000	 110.0	 1	     1.1500	     0.8500;
	1971	 1	 0.0	 0.0	 0.0	 0.0	 7	     1.0000	     0.0000	 110.0	 1	     1.1500	     0.8500;
	1981	 1	 0.0	 0.0	 0.0	 0.0	 9	     1.0008	     0.0000	 110.0	 1	     1.1500	     0.8500;
	1991	 1	 0.0	 0.0	 0.0	 0.0	 6	     1.0113	     0.0000	 110.0	 1	     1.1500	     0.8500;
	2001	 1	 0.0	 0.0	 0.0	 0.0	 5	     1.0047	     0.0000	 110.0	 1	     1.1500	     0.8500;
	2002	 1	 0.0	 0.0	 0.0	 0.0	 5	     1.0068	     0.0000	 220.0	 1	     1.1500	     0.8500;
	2021	 1	 0.0	 0.0	 0.0	 0.0	 1	     0.9973	     0.0000	 110.0	 1	     1.1500	     0.8500;
	2041	 1	 0.0	 0.0	 0.0	 0.0	 2	     1.0190	     0.0000	 110.0	 1	     1.1500	     0.8500;
	2042	 1	 0.0	 0.0	 0.0	 0.0	 2	     1.0279	     0.0000	 220.0	 1	     1.1500	     0.8500;
	2052	 1	 0.0	 0.0	 0.0	 0.0	 2	     1.0279	     0.0000	 220.0	 1	     1.1500	     0.8500;
	2081	 4	 0.0	 0.0	 0.0	 0.0	 3	     1.0000	     0.0000	 110.0	 1	     1.1500	     0.8500;
	2101	 1	 0.0	 0.0	 0.0	 0.0	 10	     1.0316	     0.0000	 110.0	 1	     1.1500	     0.8500;
	2121	 1	 0.0	 0.0	 0.0	 0.0	 4	     1.0080	     0.0000	 110.0	 1	     1.1500	     0.8500;
	2131	 1	 0.0	 0.0	 0.0	 0.0	 3	     1.0059	     0.0000	 110.0	 1	     1.1500	     0.8500;
	2141	 1	 0.0	 0.0	 0.0	 0.0	 5	     1.0028	     0.0000	 110.0	 1	     1.1500	     0.8500;
	2161	 1	 0.0	 0.0	 0.0	 0.0	 5	     0.9949	     0.0000	 110.0	 1	     1.1500	     0.8500;
	2181	 1	 0.0	 0.0	 0.0	 0.0	 10	     1.0198	     0.0000	 110.0	 1	     1.1500	     0.8500;
	2202	 1	 0.0	 0.0	 0.0	 0.0	 2	     1.0163	     0.0000	 220.0	 1	     1.1500	     0.8500;
	2204	 1	 0.0	 0.0	 0.0	 0.0	 2	     1.0384	     0.0000	 380.0	 1	     1.1500	     0.8500;
	2221	 1	 0.0	 0.0	 0.0	 0.0	 3	     0.9948	     0.0000	 110.0	 1	     1.1500	     0.8500;
	2231	 1	 0.0	 0.0	 0.0	 0.0	 4	     1.0132	     0.0000	 110.0	 1	     1.1500	     0.8500;
	2241	 1	 0.0	 0.0	 0.0	 0.0	 5	     1.0010	     0.0000	 110.0	 1	     1.1500	     0.8500;
	2251	 1	 0.0	 0.0	 0.0	 0.0	 1	     1.0355	     0.0000	 110.0	 1	     1.1500	     0.8500;
	2261	 1	 0.0	 0.0	 0.0	 0.0	 8	     1.0106	     0.0000	 110.0	 1	     1.1500	     0.8500;
	2281	 1	 0.0	 0.0	 0.0	 0.0	 9	     1.0277	     0.0000	 110.0	 1	     1.1500	     0.8500;
	2301	 1	 0.0	 0.0	 0.0	 0.0	 8	     1.0128	     0.0000	 110.0	 1	     1.1500	     0.8500;
	2321	 1	 0.0	 0.0	 0.0	 0.0	 9	     1.0203	     0.0000	 110.0	 1	     1.1500	     0.8500;
	2361	 1	 0.0	 0.0	 0.0	 0.0	 4	     1.0099	     0.0000	 110.0	 1	     1.1500	     0.8500;
	2481	 1	 0.0	 0.0	 0.0	 0.0	 2	     1.0058	     0.0000	 110.0	 1	     1.1500	     0.8500;
	2491	 1	 0.0	 0.0	 0.0	 0.0	 2	     1.0058	     0.0000	 110.0	 1	     1.1500	     0.8500;
	2521	 1	 0.0	 0.0	 0.0	 0.0	 9	     1.0066	     0.0000	 110.0	 1	     1.1500	     0.8500;
	2522	 1	 0.0	 0.0	 0.0	 0.0	 9	     1.0210	     0.0000	 220.0	 1	     1.1500	     0.8500;
	2541	 1	 0.0	 0.0	 0.0	 0.0	 1	     1.0224	     0.0000	 110.0	 1	     1.1500	     0.8500;
	2551	 1	 0.0	 0.0	 0.0	 0.0	 1	     1.0198	     0.0000	 110.0	 1	     1.1500	     0.8500;
	2561	 1	 0.0	 0.0	 0.0	 0.0	 2	     1.0333	     0.0000	 110.0	 1	     1.1500	     0.8500;
	2562	 1	 0.0	 0.0	 0.0	 0.0	 2	     1.0290	     0.0000	 220.0	 1	     1.1500	     0.8500;
	2563	 1	 0.0	 0.0	 0.0	 0.0	 2	     1.0290	     0.0000	 220.0	 1	     1.1500	     0.8500;
	2571	 1	 0.0	 0.0	 0.0	 0.0	 2	     1.0353	     0.0000	 110.0	 1	     1.1500	     0.8500;
	2581	 1	 0.0	 0.0	 0.0	 0.0	 2	     1.0181	     0.0000	 110.0	 1	     1.1500	     0.8500;
	2671	 1	 0.0	 0.0	 0.0	 0.0	 9	     0.9990	     0.0000	 110.0	 1	     1.1500	     0.8500;
	2681	 1	 0.0	 0.0	 0.0	 0.0	 9	     1.0036	     0.0000	 110.0	 1	     1.1500	     0.8500;
	2701	 1	 0.0	 0.0	 0.0	 0.0	 1	     1.0332	     0.0000	 110.0	 1	     1.1500	     0.8500;
	2721	 1	 0.0	 0.0	 0.0	 0.0	 2	     1.0109	     0.0000	 110.0	 1	     1.1500	     0.8500;
	2731	 1	 0.0	 0.0	 0.0	 0.0	 7	     0.9999	     0.0000	 110.0	 1	     1.1500	     0.8500;
	2741	 1	 0.0	 0.0	 0.0	 0.0	 6	     1.0069	     0.0000	 110.0	 1	     1.1500	     0.8500;
	2742	 1	 0.0	 0.0	 0.0	 0.0	 6	     1.0086	     0.0000	 220.0	 1	     1.1500	     0.8500;
	2761	 1	 0.0	 0.0	 0.0	 0.0	 1	     1.0355	     0.0000	 110.0	 1	     1.1500	     0.8500;
	2771	 1	 0.0	 0.0	 0.0	 0.0	 7	     1.0018	     0.0000	 110.0	 1	     1.1500	     0.8500;
	2780	 1	 0.0	 0.0	 0.0	 0.0	 9	     1.0243	     0.0000	 110.0	 1	     1.1500	     0.8500;
	2781	 1	 0.0	 0.0	 0.0	 0.0	 9	     1.0243	     0.0000	 110.0	 1	     1.1500	     0.8500;
	2801	 1	 0.0	 0.0	 0.0	 0.0	 9	     1.0082	     0.0000	 110.0	 1	     1.1500	     0.8500;
	2821	 1	 0.0	 0.0	 0.0	 0.0	 9	     0.9997	     0.0000	 110.0	 1	     1.1500	     0.8500;
	2841	 1	 0.0	 0.0	 0.0	 0.0	 10	     1.0184	     0.0000	 110.0	 1	     1.1500	     0.8500;
	2842	 1	 0.0	 0.0	 0.0	 0.0	 10	     1.0212	     0.0000	 220.0	 1	     1.1500	     0.8500;
	2852	 1	 0.0	 0.0	 0.0	 0.0	 3	     0.9956	     0.0000	 220.0	 1	     1.1500	     0.8500;
	2861	 1	 0.0	 0.0	 0.0	 0.0	 1	     0.9951	     0.0000	 110.0	 1	     1.1500	     0.8500;
	2881	 1	 0.0	 0.0	 0.0	 0.0	 3	     1.0056	     0.0000	 110.0	 1	     1.1500	     0.8500;
	2941	 1	 0.0	 0.0	 0.0	 0.0	 1	     1.0226	     0.0000	 110.0	 1	     1.1500	     0.8500;
	2951	 1	 0.0	 0.0	 0.0	 0.0	 1	     1.0198	     0.0000	 110.0	 1	     1.1500	     0.8500;
	2962	 1	 0.0	 0.0	 0.0	 0.0	 2	     1.0285	     0.0000	 220.0	 1	     1.1500	     0.8500;
	2972	 1	 0.0	 0.0	 0.0	 0.0	 2	     1.0280	     0.0000	 220.0	 1	     1.1500	     0.8500;
	3061	 1	 0.0	 0.0	 0.0	 0.0	 3	     0.9961	     0.0000	 110.0	 1	     1.1500	     0.8500;
	3081	 1	 0.0	 0.0	 0.0	 0.0	 2	     1.0198	     0.0000	 110.0	 1	     1.1500	     0.8500;
	3082	 1	 0.0	 0.0	 0.0	 0.0	 2	     1.0187	     0.0000	 220.0	 1	     1.1500	     0.8500;
	3091	 1	 0.0	 0.0	 0.0	 0.0	 2	     0.9976	     0.0000	 110.0	 1	     1.1500	     0.8500;
	3101	 1	 0.0	 0.0	 0.0	 0.0	 5	     0.9979	     0.0000	 110.0	 1	     1.1500	     0.8500;
	3122	 1	 0.0	 0.0	 0.0	 0.0	 2	     1.0137	     0.0000	 220.0	 1	     1.1500	     0.8500;
	3200	 1	 0.0	 0.0	 0.0	 0.0	 3	     1.0006	     0.0000	 110.0	 1	     1.1500	     0.8500;
	3201	 1	 0.0	 0.0	 0.0	 0.0	 3	     0.9991	     0.0000	 110.0	 1	     1.1500	     0.8500;
	3202	 1	 0.0	 0.0	 0.0	 0.0	 3	     1.0006	     0.0000	 220.0	 1	     1.1500	     0.8500;
	3203	 1	 0.0	 0.0	 0.0	 0.0	 3	     1.0006	     0.0000	 220.0	 1	     1.1500	     0.8500;
	3209	 1	 0.0	 0.0	 0.0	 0.0	 3	     0.9991	     0.0000	 110.0	 1	     1.1500	     0.8500;
	3221	 1	 0.0	 0.0	 0.0	 0.0	 3	     0.9968	     0.0000	 110.0	 1	     1.1500	     0.8500;
	3241	 1	 0.0	 0.0	 0.0	 0.0	 8	     1.0050	     0.0000	 110.0	 1	     1.1500	     0.8500;
	3261	 1	 0.0	 0.0	 0.0	 0.0	 6	     1.0112	     0.0000	 110.0	 1	     1.1500	     0.8500;
	3281	 1	 0.0	 0.0	 0.0	 0.0	 7	     1.0109	     0.0000	 110.0	 1	     1.1500	     0.8500;
	3282	 1	 0.0	 0.0	 0.0	 0.0	 7	     1.0044	     0.0000	 220.0	 1	     1.1500	     0.8500;
	3301	 1	 0.0	 0.0	 0.0	 0.0	 7	     1.0012	     0.0000	 110.0	 1	     1.1500	     0.8500;
	3321	 1	 0.0	 0.0	 0.0	 0.0	 10	     1.0129	     0.0000	 110.0	 1	     1.1500	     0.8500;
	3341	 1	 0.0	 0.0	 0.0	 0.0	 6	     1.0245	     0.0000	 110.0	 1	     1.1500	     0.8500;
	3342	 1	 0.0	 0.0	 0.0	 0.0	 6	     1.0075	     0.0000	 220.0	 1	     1.1500	     0.8500;
	3361	 1	 0.0	 0.0	 0.0	 0.0	 9	     1.0200	     0.0000	 110.0	 1	     1.1500	     0.8500;
	3381	 1	 0.0	 0.0	 0.0	 0.0	 8	     1.0109	     0.0000	 110.0	 1	     1.1500	     0.8500;
	3401	 1	 0.0	 0.0	 0.0	 0.0	 5	     1.0046	     0.0000	 110.0	 1	     1.1500	     0.8500;
	3421	 1	 0.0	 0.0	 0.0	 0.0	 1	     1.0353	     0.0000	 110.0	 1	     1.1500	     0.8500;
	3431	 1	 0.0	 0.0	 0.0	 0.0	 1	     0.9949	     0.0000	 110.0	 1	     1.1500	     0.8500;
	3501	 1	 0.0	 0.0	 0.0	 0.0	 9	     1.0000	     0.0000	 110.0	 1	     1.1500	     0.8500;
	3521	 1	 0.0	 0.0	 0.0	 0.0	 10	     1.0373	     0.0000	 110.0	 1	     1.1500	     0.8500;
	3522	 1	 0.0	 0.0	 0.0	 0.0	 10	     1.0251	     0.0000	 220.0	 1	     1.1500	     0.8500;
	3541	 1	 0.0	 0.0	 0.0	 0.0	 7	     1.0073	     0.0000	 110.0	 1	     1.1500	     0.8500;
	3561	 1	 0.0	 0.0	 0.0	 0.0	 10	     1.0196	     0.0000	 110.0	 1	     1.1500	     0.8500;
	3581	 1	 0.0	 0.0	 0.0	 0.0	 9	     1.0200	     0.0000	 110.0	 1	     1.1500	     0.8500;
	3601	 1	 0.0	 0.0	 0.0	 0.0	 3	     0.9964	     0.0000	 110.0	 1	     1.1500	     0.8500;
	3611	 1	 0.0	 0.0	 0.0	 0.0	 3	     0.9964	     0.0000	 110.0	 1	     1.1500	     0.8500;
	3621	 1	 0.0	 0.0	 0.0	 0.0	 5	     1.0000	     0.0000	 110.0	 1	     1.1500	     0.8500;
	3641	 1	 0.0	 0.0	 0.0	 0.0	 6	     1.0117	     0.0000	 110.0	 1	     1.1500	     0.8500;
	3642	 1	 0.0	 0.0	 0.0	 0.0	 6	     1.0113	     0.0000	 220.0	 1	     1.1500	     0.8500;
	3651	 1	 0.0	 0.0	 0.0	 0.0	 5	     1.0117	     0.0000	 110.0	 1	     1.1500	     0.8500;
	3751	 1	 0.0	 0.0	 0.0	 0.0	 1	     1.0228	     0.0000	 110.0	 1	     1.1500	     0.8500;
	3761	 1	 0.0	 0.0	 0.0	 0.0	 1	     1.0178	     0.0000	 110.0	 1	     1.1500	     0.8500;
	3781	 1	 0.0	 0.0	 0.0	 0.0	 1	     1.0332	     0.0000	 110.0	 1	     1.1500	     0.8500;
	3801	 1	 0.0	 0.0	 0.0	 0.0	 3	     0.9984	     0.0000	 110.0	 1	     1.1500	     0.8500;
	3821	 1	 0.0	 0.0	 0.0	 0.0	 10	     1.0261	     0.0000	 110.0	 1	     1.1500	     0.8500;
	3841	 1	 0.0	 0.0	 0.0	 0.0	 2	     1.0114	     0.0000	 110.0	 1	     1.1500	     0.8500;
	3842	 1	 0.0	 0.0	 0.0	 0.0	 2	     1.0173	     0.0000	 220.0	 1	     1.1500	     0.8500;
	3851	 1	 0.0	 0.0	 0.0	 0.0	 2	     1.0161	     0.0000	 110.0	 1	     1.1500	     0.8500;
	3852	 1	 0.0	 0.0	 0.0	 0.0	 2	     1.0177	     0.0000	 220.0	 1	     1.1500	     0.8500;
	3861	 1	 0.0	 0.0	 0.0	 0.0	 1	     1.0231	     0.0000	 110.0	 1	     1.1500	     0.8500;
	3871	 1	 0.0	 0.0	 0.0	 0.0	 1	     1.0192	     0.0000	 110.0	 1	     1.1500	     0.8500;
	3881	 1	 0.0	 0.0	 0.0	 0.0	 3	     0.9990	     0.0000	 110.0	 1	     1.1500	     0.8500;
	3901	 1	 0.0	 0.0	 0.0	 0.0	 7	     1.0043	     0.0000	 110.0	 1	     1.1500	     0.8500;
	3934	 1	 0.0	 0.0	 0.0	 0.0	 4	     1.0623	     0.0000	 380.0	 1	     1.1500	     0.8500;
	3941	 1	 0.0	 0.0	 0.0	 0.0	 4	     1.0131	     0.0000	 110.0	 1	     1.1500	     0.8500;
	3942	 1	 0.0	 0.0	 0.0	 0.0	 4	     1.0205	     0.0000	 220.0	 1	     1.1500	     0.8500;
	3944	 1	 0.0	 0.0	 0.0	 0.0	 4	     1.0623	     0.0000	 380.0	 1	     1.1500	     0.8500;
	3954	 1	 0.0	 0.0	 0.0	 0.0	 4	     0.9964	     0.0000	 380.0	 1	     1.1500	     0.8500;
	3961	 1	 0.0	 0.0	 0.0	 0.0	 3	     0.9965	     0.0000	 110.0	 1	     1.1500	     0.8500;
	3981	 1	 0.0	 0.0	 0.0	 0.0	 7	     1.0041	     0.0000	 110.0	 1	     1.1500	     0.8500;
	3991	 1	 0.0	 0.0	 0.0	 0.0	 7	     1.0041	     0.0000	 110.0	 1	     1.1500	     0.8500;
	4001	 1	 0.0	 0.0	 0.0	 0.0	 9	     1.0034	     0.0000	 110.0	 1	     1.1500	     0.8500;
	4021	 1	 0.0	 0.0	 0.0	 0.0	 3	     0.9975	     0.0000	 110.0	 1	     1.1500	     0.8500;
	4041	 1	 0.0	 0.0	 0.0	 0.0	 9	     1.0099	     0.0000	 110.0	 1	     1.1500	     0.8500;
	4061	 1	 0.0	 0.0	 0.0	 0.0	 10	     1.0335	     0.0000	 110.0	 1	     1.1500	     0.8500;
	4071	 1	 0.0	 0.0	 0.0	 0.0	 9	     1.0219	     0.0000	 110.0	 1	     1.1500	     0.8500;
	4081	 1	 0.0	 0.0	 0.0	 0.0	 8	     1.0042	     0.0000	 110.0	 1	     1.1500	     0.8500;
	4101	 1	 0.0	 0.0	 0.0	 0.0	 1	     1.0353	     0.0000	 110.0	 1	     1.1500	     0.8500;
...
];

%% generator data
%	bus	Pg	Qg	Qmax	Qmin	Vg	mBase	status	Pmax	Pmin	Pc1	Pc2	Qc1min	Qc1max	Qc2min	Qc2max	ramp_agc	ramp_10	ramp_30	ramp_q	apf
mpc.gen = [
	10271	 21.0	 0.0	 15.0	 -7.0	 1.0	 34.0	 0	 21.0	 5.0	 0.0	 0.0	 0.0	 0.0	 0.0	 0.0	 0.0	 0.0	 0.0	 0.0	 0.0; % PEL
	10272	 22.0	 0.0	 15.0	 -7.0	 1.0	 34.0	 0	 22.0	 5.0	 0.0	 0.0	 0.0	 0.0	 0.0	 0.0	 0.0	 0.0	 0.0	 0.0	 0.0; % PEL
	10273	 19.0	 0.0	 15.0	 -7.0	 1.0	 34.0	 0	 19.0	 5.0	 0.0	 0.0	 0.0	 0.0	 0.0	 0.0	 0.0	 0.0	 0.0	 0.0	 0.0; % NG
	10274	 24.0	 0.0	 15.0	 -7.0	 1.0	 34.0	 0	 24.0	 5.0	 0.0	 0.0	 0.0	 0.0	 0.0	 0.0	 0.0	 0.0	 0.0	 0.0	 0.0; % PEL
	10275	 2.25	 0.0	 0.0	 0.0	 1.04	 8.35	 1	 7.5	 0.0	 0.0	 0.0	 0.0	 0.0	 0.0	 0.0	 0.0	 0.0	 0.0	 0.0	 0.0; % PEL
	10276	 0.198	 0.0	 0.0	 0.0	 1.04	 0.85	 1	 0.66	 0.0	 0.0	 0.0	 0.0	 0.0	 0.0	 0.0	 0.0	 0.0	 0.0	 0.0	 0.0; % PEL
	10470	 222.0	 -49.849	 270.0	 -170.0	 1.0	 500.0	 0	 443.0	 222.0	 0.0	 0.0	 0.0	 0.0	 0.0	 0.0	 0.0	 0.0	 0.0	 0.0	 0.0; % COW
	10471	 270.0	 0.0	 159.0	 -75.0	 1.0	 318.8	 0	 270.0	 40.0	 0.0	 0.0	 0.0	 0.0	 0.0	 0.0	 0.0	 0.0	 0.0	 0.0	 0.0; % NG
	10472	 90.0	 0.0	 60.0	 -30.0	 1.0	 100.9	 0	 90.0	 13.0	 0.0	 0.0	 0.0	 0.0	 0.0	 0.0	 0.0	 0.0	 0.0	 0.0	 0.0; % NG
	10473	 90.0	 0.0	 60.0	 -30.0	 1.0	 100.9	 0	 90.0	 13.0	 0.0	 0.0	 0.0	 0.0	 0.0	 0.0	 0.0	 0.0	 0.0	 0.0	 0.0; % NG
	10474	 90.0	 0.0	 60.0	 -30.0	 1.0	 100.9	 0	 90.0	 13.0	 0.0	 0.0	 0.0	 0.0	 0.0	 0.0	 0.0	 0.0	 0.0	 0.0	 0.0; % NG
	10671	 1.44	 -1.94	 -1.94	 -1.94	 1.04	 4.8	 1	 4.8	 0.0	 0.0	 0.0	 0.0	 0.0	 0.0	 0.0	 0.0	 0.0	 0.0	 0.0	 0.0; % NG
	10672	 1.5	 -2.0	 -2.0	 -2.0	 1.04	 6.0	 1	 5.0	 0.0	 0.0	 0.0	 0.0	 0.0	 0.0	 0.0	 0.0	 0.0	 0.0	 0.0	 0.0; % NG
	10673	 0.36	 -0.48	 -0.48	 -0.48	 1.04	 1.2	 1	 1.2	 0.0	 0.0	 0.0	 0.0	 0.0	 0.0	 0.0	 0.0	 0.0	 0.0	 0.0	 0.0; % PEL
	10674	 1.38	 -1.77	 -1.77	 -2.3	 1.04	 4.6	 0	 4.6	 0.0	 0.0	 0.0	 0.0	 0.0	 0.0	 0.0	 0.0	 0.0	 0.0	 0.0	 0.0; % PEL
	11204	 1.0	 0.0	 0.0	 0.0	 1.0	 1.6	 0	 1.0	 0.0	 0.0	 0.0	 0.0	 0.0	 0.0	 0.0	 0.0	 0.0	 0.0	 0.0	 0.0; % PEL
	11271	 7.56	 0.0	 0.0	 0.0	 1.04	 28.0	 1	 25.2	 0.0	 0.0	 0.0	 0.0	 0.0	 0.0	 0.0	 0.0	 0.0	 0.0	 0.0	 0.0; % NG
	12371	 9.45	 -7.0	 7.0	 -7.0	 1.0	 32.0	 1	 31.5	 0.0	 0.0	 0.0	 0.0	 0.0	 0.0	 0.0	 0.0	 0.0	 0.0	 0.0	 0.0; % COW
	12372	 3.15	 0.0	 0.0	 0.0	 1.0	 10.0	 1	 10.5	 0.0	 0.0	 0.0	 0.0	 0.0	 0.0	 0.0	 0.0	 0.0	 0.0	 0.0	 0.0; % NG
	12571	 5.835	 0.0	 0.0	 0.0	 1.0	 25.05	 1	 19.45	 0.0	 0.0	 0.0	 0.0	 0.0	 0.0	 0.0	 0.0	 0.0	 0.0	 0.0	 0.0; % NG
	12572	 0.9	 -0.99	 0.99	 -0.99	 1.0	 3.34	 1	 3.0	 0.0	 0.0	 0.0	 0.0	 0.0	 0.0	 0.0	 0.0	 0.0	 0.0	 0.0	 0.0; % NG
	12573	 2.7	 -2.96	 2.96	 -2.96	 1.0	 10.02	 1	 9.0	 0.0	 0.0	 0.0	 0.0	 0.0	 0.0	 0.0	 0.0	 0.0	 0.0	 0.0	 0.0; % NG
	12872	 2.52	 -0.592	 0.0	 -2.76	 1.0	 9.2	 1	 8.4	 0.0	 0.0	 0.0	 0.0	 0.0	 0.0	 0.0	 0.0	 0.0	 0.0	 0.0	 0.0; % NG
	12873	 5.865	 0.0	 0.0	 0.0	 1.0	 20.7	 1	 19.55	 0.0	 0.0	 0.0	 0.0	 0.0	 0.0	 0.0	 0.0	 0.0	 0.0	 0.0	 0.0; % PEL
	12874	 2.55	 0.0	 0.0	 0.0	 1.0	 8.5	 1	 8.5	 0.0	 0.0	 0.0	 0.0	 0.0	 0.0	 0.0	 0.0	 0.0	 0.0	 0.0	 0.0; % NG
	13434	 4.3	 0.0	 0.0	 0.0	 1.0	 4.5	 0	 4.3	 0.0	 0.0	 0.0	 0.0	 0.0	 0.0	 0.0	 0.0	 0.0	 0.0	 0.0	 0.0; % NG
	13471	 0.198	 0.0	 0.0	 0.0	 1.0	 0.66	 1	 0.66	 0.0	 0.0	 0.0	 0.0	 0.0	 0.0	 0.0	 0.0	 0.0	 0.0	 0.0	 0.0; % PEL
	13472	 0.765	 0.0	 0.0	 -0.84	 1.0	 2.7	 1	 2.55	 0.0	 0.0	 0.0	 0.0	 0.0	 0.0	 0.0	 0.0	 0.0	 0.0	 0.0	 0.0; % PEL
	13473	 3.0	 0.0	 0.0	 0.0	 1.0	 10.0	 1	 10.0	 0.0	 0.0	 0.0	 0.0	 0.0	 0.0	 0.0	 0.0	 0.0	 0.0	 0.0	 0.0; % NG
	13475	 2.295	 0.0	 0.0	 0.0	 1.0	 7.65	 1	 7.65	 0.0	 0.0	 0.0	 0.0	 0.0	 0.0	 0.0	 0.0	 0.0	 0.0	 0.0	 0.0; % NG
	13476	 3.57	 0.0	 0.0	 0.0	 1.0	 11.5	 1	 11.9	 0.0	 0.0	 0.0	 0.0	 0.0	 0.0	 0.0	 0.0	 0.0	 0.0	 0.0	 0.0; % NG
	13477	 0.765	 0.0	 0.0	 0.0	 1.0	 2.7	 1	 2.55	 0.0	 0.0	 0.0	 0.0	 0.0	 0.0	 0.0	 0.0	 0.0	 0.0	 0.0	 0.0; % PEL
	13479	 1.02	 0.0	 0.0	 0.0	 1.0	 3.4	 1	 3.4	 0.0	 0.0	 0.0	 0.0	 0.0	 0.0	 0.0	 0.0	 0.0	 0.0	 0.0	 0.0; % PEL
	14073	 1.935	 -2.4	 -2.4	 -2.4	 1.04	 7.611	 1	 6.45	 0.0	 0.0	 0.0	 0.0	 0.0	 0.0	 0.0	 0.0	 0.0	 0.0	 0.0	 0.0; % NG
	14471	 1.2	 0.0	 0.0	 0.0	 1.04	 4.0	 1	 4.0	 0.0	 0.0	 0.0	 0.0	 0.0	 0.0	 0.0	 0.0	 0.0	 0.0	 0.0	 0.0; % NG
	14472	 0.255	 0.0	 0.0	 0.0	 1.0	 0.85	 1	 0.85	 0.0	 0.0	 0.0	 0.0	 0.0	 0.0	 0.0	 0.0	 0.0	 0.0	 0.0	 0.0; % NG
	14604	 4.8	 0.0	 0.0	 0.0	 1.05	 7.0	 0	 4.8	 0.0	 0.0	 0.0	 0.0	 0.0	 0.0	 0.0	 0.0	 0.0	 0.0	 0.0	 0.0; % NG
	14871	 0.51	 0.0	 0.0	 0.0	 1.04	 4.6	 1	 1.7	 0.0	 0.0	 0.0	 0.0	 0.0	 0.0	 0.0	 0.0	 0.0	 0.0	 0.0	 0.0; % PEL
	15573	 6.0	 0.0	 0.0	 0.0	 1.04	 23.0	 1	 20.0	 0.0	 0.0	 0.0	 0.0	 0.0	 0.0	 0.0	 0.0	 0.0	 0.0	 0.0	 0.0; % PEL
	15771	 0.594	 -0.3	 -0.3	 -0.3	 1.0	 1.98	 1	 1.98	 0.0	 0.0	 0.0	 0.0	 0.0	 0.0	 0.0	 0.0	 0.0	 0.0	 0.0	 0.0; % PEL
	15772	 0.9	 -1.92	 -1.92	 -1.92	 1.0	 3.0	 1	 3.0	 0.0	 0.0	 0.0	 0.0	 0.0	 0.0	 0.0	 0.0	 0.0	 0.0	 0.0	 0.0; % PEL
	16371	 1.02	 0.0	 0.0	 0.0	 1.0	 3.4	 1	 3.4	 0.0	 0.0	 0.0	 0.0	 0.0	 0.0	 0.0	 0.0	 0.0	 0.0	 0.0	 0.0; % PEL
	16372	 1.02	 0.0	 0.0	 0.0	 1.0	 3.4	 1	 3.4	 0.0	 0.0	 0.0	 0.0	 0.0	 0.0	 0.0	 0.0	 0.0	 0.0	 0.0	 0.0; % PEL
	16373	 2.04	 0.0	 0.0	 0.0	 1.0	 6.8	 1	 6.8	 0.0	 0.0	 0.0	 0.0	 0.0	 0.0	 0.0	 0.0	 0.0	 0.0	 0.0	 0.0; % NG
	16374	 2.295	 0.0	 0.0	 0.0	 1.0	 7.65	 1	 7.65	 0.0	 0.0	 0.0	 0.0	 0.0	 0.0	 0.0	 0.0	 0.0	 0.0	 0.0	 0.0; % NG
	16375	 1.188	 0.0	 0.0	 0.0	 1.0	 4.25	 1	 3.96	 0.0	 0.0	 0.0	 0.0	 0.0	 0.0	 0.0	 0.0	 0.0	 0.0	 0.0	 0.0; % NG
	16376	 1.485	 0.0	 0.0	 0.0	 1.0	 5.1	 1	 4.95	 0.0	 0.0	 0.0	 0.0	 0.0	 0.0	 0.0	 0.0	 0.0	 0.0	 0.0	 0.0; % NG
	16377	 2.7	 0.0	 0.0	 0.0	 1.0	 9.2	 1	 9.0	 0.0	 0.0	 0.0	 0.0	 0.0	 0.0	 0.0	 0.0	 0.0	 0.0	 0.0	 0.0; % NG
	16379	 0.087	 0.0	 0.0	 0.0	 1.0	 0.323	 1	 0.29	 0.0	 0.0	 0.0	 0.0	 0.0	 0.0	 0.0	 0.0	 0.0	 0.0	 0.0	 0.0; % PEL
	16571	 11.34	 0.0	 0.0	 0.0	 1.0	 40.0	 1	 37.8	 0.0	 0.0	 0.0	 0.0	 0.0	 0.0	 0.0	 0.0	 0.0	 0.0	 0.0	 0.0; % PEL
	16670	 1.35	 -1.411	 0.0	 -3.07	 1.0	 4.5	 1	 4.5	 0.0	 0.0	 0.0	 0.0	 0.0	 0.0	 0.0	 0.0	 0.0	 0.0	 0.0	 0.0; % NG
	16671	 1.02	 0.0	 0.0	 0.0	 1.04	 3.4	 1	 3.4	 0.0	 0.0	 0.0	 0.0	 0.0	 0.0	 0.0	 0.0	 0.0	 0.0	 0.0	 0.0; % PEL
	16672	 0.477	 -0.56	 -0.56	 -0.56	 1.04	 1.7	 1	 1.59	 0.0	 0.0	 0.0	 0.0	 0.0	 0.0	 0.0	 0.0	 0.0	 0.0	 0.0	 0.0; % PEL
	16674	 5.61	 0.0	 0.0	 0.0	 1.04	 18.7	 1	 18.7	 0.0	 0.0	 0.0	 0.0	 0.0	 0.0	 0.0	 0.0	 0.0	 0.0	 0.0	 0.0; % NG
	16675	 2.4	 -2.65	 -2.65	 -2.65	 1.04	 8.0	 1	 8.0	 0.0	 0.0	 0.0	 0.0	 0.0	 0.0	 0.0	 0.0	 0.0	 0.0	 0.0	 0.0; % NG
	16873	 8.0	 0.0	 7.0	 -1.0	 1.0	 11.5	 0	 8.0	 2.0	 0.0	 0.0	 0.0	 0.0	 0.0	 0.0	 0.0	 0.0	 0.0	 0.0	 0.0; % NG
	17073	 22.5	 0.0	 15.0	 -5.0	 1.0	 30.0	 0	 22.5	 5.0	 0.0	 0.0	 0.0	 0.0	 0.0	 0.0	 0.0	 0.0	 0.0	 0.0	 0.0; % PEL
	17074	 22.5	 0.0	 23.0	 -25.0	 1.0	 35.5	 0	 22.5	 5.0	 0.0	 0.0	 0.0	 0.0	 0.0	 0.0	 0.0	 0.0	 0.0	 0.0	 0.0; % COW
	17075	 0.594	 -0.8	 -0.8	 -0.8	 1.0	 1.98	 1	 1.98	 0.0	 0.0	 0.0	 0.0	 0.0	 0.0	 0.0	 0.0	 0.0	 0.0	 0.0	 0.0; % PEL
	17077	 0.006	 0.0	 0.0	 0.0	 1.0	 1.2	 1	 0.02	 0.0	 0.0	 0.0	 0.0	 0.0	 0.0	 0.0	 0.0	 0.0	 0.0	 0.0	 0.0; % PEL
	17671	 10.0	 0.0	 7.0	 -3.0	 1.0	 12.5	 0	 10.0	 3.0	 0.0	 0.0	 0.0	 0.0	 0.0	 0.0	 0.0	 0.0	 0.0	 0.0	 0.0; % NG
	17672	 10.0	 0.0	 7.0	 -3.0	 1.0	 12.5	 0	 10.0	 3.0	 0.0	 0.0	 0.0	 0.0	 0.0	 0.0	 0.0	 0.0	 0.0	 0.0	 0.0; % NG
	18471	 1.497	 0.0	 0.0	 0.0	 1.04	 5.2	 1	 4.99	 0.0	 0.0	 0.0	 0.0	 0.0	 0.0	 0.0	 0.0	 0.0	 0.0	 0.0	 0.0; % NG
	19081	 0.765	 0.0	 0.0	 0.0	 1.04	 2.55	 1	 2.55	 0.0	 0.0	 0.0	 0.0	 0.0	 0.0	 0.0	 0.0	 0.0	 0.0	 0.0	 0.0; % PEL
	19082	 0.51	 0.0	 0.0	 0.0	 1.04	 1.7	 1	 1.7	 0.0	 0.0	 0.0	 0.0	 0.0	 0.0	 0.0	 0.0	 0.0	 0.0	 0.0	 0.0; % PEL
	19083	 1.497	 0.0	 0.0	 0.0	 1.04	 6.9	 1	 4.99	 0.0	 0.0	 0.0	 0.0	 0.0	 0.0	 0.0	 0.0	 0.0	 0.0	 0.0	 0.0; % NG
	19084	 1.35	 -1.5	 -1.5	 -1.5	 1.04	 4.6	 1	 4.5	 0.0	 0.0	 0.0	 0.0	 0.0	 0.0	 0.0	 0.0	 0.0	 0.0	 0.0	 0.0; % NG
	19085	 6.3	 -7.0	 -7.0	 -7.0	 1.04	 23.824	 1	 21.0	 0.0	 0.0	 0.0	 0.0	 0.0	 0.0	 0.0	 0.0	 0.0	 0.0	 0.0	 0.0; % NG
	19317	 0.0	 -6.0	 6.0	 -6.0	 1.0	 6.0	 1	 0.0	 0.0	 0.0	 0.0	 0.0	 0.0	 0.0	 0.0	 0.0	 0.0	 0.0	 0.0	 0.0; % SYNC
	19371	 7.125	 0.0	 0.0	 0.0	 1.0	 29.78	 1	 23.75	 0.0	 0.0	 0.0	 0.0	 0.0	 0.0	 0.0	 0.0	 0.0	 0.0	 0.0	 0.0; % NG
	19372	 3.315	 0.0	 0.0	 0.0	 1.0	 11.05	 1	 11.05	 0.0	 0.0	 0.0	 0.0	 0.0	 0.0	 0.0	 0.0	 0.0	 0.0	 0.0	 0.0; % NG
	19471	 60.0	 -19.701	 94.0	 -50.0	 1.0	 153.0	 1	 133.5	 60.0	 0.0	 0.0	 0.0	 0.0	 0.0	 0.0	 0.0	 0.0	 0.0	 0.0	 0.0; % NG
	19472	 58.274	 0.0	 38.0	 -23.0	 1.0	 66.625	 0	 58.274	 19.7	 0.0	 0.0	 0.0	 0.0	 0.0	 0.0	 0.0	 0.0	 0.0	 0.0	 0.0; % PEL
	19473	 58.274	 0.0	 40.0	 -23.0	 1.0	 66.625	 0	 58.274	 19.7	 0.0	 0.0	 0.0	 0.0	 0.0	 0.0	 0.0	 0.0	 0.0	 0.0	 0.0; % PEL
	19601	 1.755	 0.0	 0.0	 0.0	 1.0	 6.5	 1	 5.85	 0.0	 0.0	 0.0	 0.0	 0.0	 0.0	 0.0	 0.0	 0.0	 0.0	 0.0	 0.0; % COW
	19771	 12.75	 0.0	 0.0	 0.0	 1.0	 46.875	 1	 42.5	 0.0	 0.0	 0.0	 0.0	 0.0	 0.0	 0.0	 0.0	 0.0	 0.0	 0.0	 0.0; % NG
	19772	 2.55	 -1.312	 2.79	 -2.79	 1.0	 8.5	 1	 8.5	 0.0	 0.0	 0.0	 0.0	 0.0	 0.0	 0.0	 0.0	 0.0	 0.0	 0.0	 0.0; % NG
	19773	 9.0	 -4.619	 9.86	 -9.86	 1.0	 38.714	 1	 30.0	 0.0	 0.0	 0.0	 0.0	 0.0	 0.0	 0.0	 0.0	 0.0	 0.0	 0.0	 0.0; % NG
	19971	 6.0	 -6.7	 6.7	 -6.7	 1.0	 20.7	 1	 20.0	 0.0	 0.0	 0.0	 0.0	 0.0	 0.0	 0.0	 0.0	 0.0	 0.0	 0.0	 0.0; % PEL
	19972	 0.69	 0.0	 0.0	 0.0	 1.0	 2.3	 1	 2.3	 0.0	 0.0	 0.0	 0.0	 0.0	 0.0	 0.0	 0.0	 0.0	 0.0	 0.0	 0.0; % PEL
	19973	 0.69	 0.0	 0.0	 0.0	 1.0	 2.3	 1	 2.3	 0.0	 0.0	 0.0	 0.0	 0.0	 0.0	 0.0	 0.0	 0.0	 0.0	 0.0	 0.0; % PEL
	19974	 4.83	 -4.0	 4.0	 -4.0	 1.0	 16.1	 1	 16.1	 0.0	 0.0	 0.0	 0.0	 0.0	 0.0	 0.0	 0.0	 0.0	 0.0	 0.0	 0.0; % NG
	21071	 0.15	 0.0	 0.0	 0.0	 1.04	 0.85	 1	 0.5	 0.0	 0.0	 0.0	 0.0	 0.0	 0.0	 0.0	 0.0	 0.0	 0.0	 0.0	 0.0; % PEL
	21371	 8.55	 -9.5	 9.5	 -9.5	 1.0	 31.73	 1	 28.5	 0.0	 0.0	 0.0	 0.0	 0.0	 0.0	 0.0	 0.0	 0.0	 0.0	 0.0	 0.0; % COW
	21871	 0.51	 0.0	 0.0	 0.0	 1.0	 1.7	 1	 1.7	 0.0	 0.0	 0.0	 0.0	 0.0	 0.0	 0.0	 0.0	 0.0	 0.0	 0.0	 0.0; % PEL
	21872	 0.75	 -0.99	 -0.99	 -1.28	 1.0	 2.7	 1	 2.5	 0.0	 0.0	 0.0	 0.0	 0.0	 0.0	 0.0	 0.0	 0.0	 0.0	 0.0	 0.0; % PEL
	22273	 1.35	 -0.788	 0.0	 -1.48	 1.0	 4.0	 1	 4.5	 0.0	 0.0	 0.0	 0.0	 0.0	 0.0	 0.0	 0.0	 0.0	 0.0	 0.0	 0.0; % NG
	22274	 1.782	 -2.4	 -2.4	 -2.4	 1.0	 5.94	 1	 5.94	 0.0	 0.0	 0.0	 0.0	 0.0	 0.0	 0.0	 0.0	 0.0	 0.0	 0.0	 0.0; % NG
	22275	 1.275	 0.0	 0.0	 0.0	 1.0	 4.25	 1	 4.25	 0.0	 0.0	 0.0	 0.0	 0.0	 0.0	 0.0	 0.0	 0.0	 0.0	 0.0	 0.0; % NG
	22276	 1.785	 0.0	 0.0	 0.0	 1.0	 6.68	 1	 5.95	 0.0	 0.0	 0.0	 0.0	 0.0	 0.0	 0.0	 0.0	 0.0	 0.0	 0.0	 0.0; % NG
	22278	 1.386	 -1.0	 -1.0	 -1.0	 1.0	 4.62	 1	 4.62	 0.0	 0.0	 0.0	 0.0	 0.0	 0.0	 0.0	 0.0	 0.0	 0.0	 0.0	 0.0; % NG
	22292	 6.0	 0.0	 0.0	 0.0	 1.0	 6.0	 0	 6.0	 0.0	 0.0	 0.0	 0.0	 0.0	 0.0	 0.0	 0.0	 0.0	 0.0	 0.0	 0.0; % PEL
	22371	 17.85	 0.0	 0.0	 0.0	 1.0	 59.5	 1	 59.5	 0.0	 0.0	 0.0	 0.0	 0.0	 0.0	 0.0	 0.0	 0.0	 0.0	 0.0	 0.0; % PEL
	22471	 0.765	 0.0	 0.0	 0.0	 1.04	 2.55	 1	 2.55	 0.0	 0.0	 0.0	 0.0	 0.0	 0.0	 0.0	 0.0	 0.0	 0.0	 0.0	 0.0; % PEL
	22472	 1.275	 0.0	 0.0	 0.0	 1.04	 4.25	 1	 4.25	 0.0	 0.0	 0.0	 0.0	 0.0	 0.0	 0.0	 0.0	 0.0	 0.0	 0.0	 0.0; % PEL
	22671	 52.1	 0.0	 32.6	 -22.7	 1.02	 62.0	 0	 52.1	 1.2	 0.0	 0.0	 0.0	 0.0	 0.0	 0.0	 0.0	 0.0	 0.0	 0.0	 0.0; % COW
	22672	 52.1	 0.0	 32.6	 -22.7	 1.02	 62.0	 0	 52.1	 1.2	 0.0	 0.0	 0.0	 0.0	 0.0	 0.0	 0.0	 0.0	 0.0	 0.0	 0.0; % NG
	22871	 0.72	 -0.84	 -0.84	 -1.09	 1.0	 2.4	 1	 2.4	 0.0	 0.0	 0.0	 0.0	 0.0	 0.0	 0.0	 0.0	 0.0	 0.0	 0.0	 0.0; % PEL
	26771	 7.8	 -10.0	 10.0	 -10.0	 1.0	 26.0	 1	 26.0	 0.0	 0.0	 0.0	 0.0	 0.0	 0.0	 0.0	 0.0	 0.0	 0.0	 0.0	 0.0; % NG
	26772	 1.8	 0.0	 0.0	 0.0	 1.0	 6.0	 1	 6.0	 6.0	 0.0	 0.0	 0.0	 0.0	 0.0	 0.0	 0.0	 0.0	 0.0	 0.0	 0.0; % NG
	26773	 6.6	 -10.0	 10.0	 -10.0	 1.0	 22.0	 1	 22.0	 0.0	 0.0	 0.0	 0.0	 0.0	 0.0	 0.0	 0.0	 0.0	 0.0	 0.0	 0.0; % PEL
	26774	 1.8	 0.0	 0.0	 0.0	 1.0	 6.0	 1	 6.0	 6.0	 0.0	 0.0	 0.0	 0.0	 0.0	 0.0	 0.0	 0.0	 0.0	 0.0	 0.0; % NG
	27071	 0.24	 0.0	 0.0	 0.0	 1.0	 0.8	 1	 0.8	 0.0	 0.0	 0.0	 0.0	 0.0	 0.0	 0.0	 0.0	 0.0	 0.0	 0.0	 0.0; % NG
	27204	 4.0	 0.0	 1.0	 -1.0	 1.04	 5.0	 0	 4.0	 0.0	 0.0	 0.0	 0.0	 0.0	 0.0	 0.0	 0.0	 0.0	 0.0	 0.0	 0.0; % NG
	27361	 0.0	 -5.762	 12.3	 -12.3	 1.0	 12.3	 1	 0.0	 0.0	 0.0	 0.0	 0.0	 0.0	 0.0	 0.0	 0.0	 0.0	 0.0	 0.0	 0.0; % SYNC
	27371	 3.84	 0.0	 0.0	 0.0	 1.0	 14.45	 1	 12.8	 0.0	 0.0	 0.0	 0.0	 0.0	 0.0	 0.0	 0.0	 0.0	 0.0	 0.0	 0.0; % COW
	27372	 5.1	 0.0	 0.0	 0.0	 1.0	 18.75	 1	 17.0	 0.0	 0.0	 0.0	 0.0	 0.0	 0.0	 0.0	 0.0	 0.0	 0.0	 0.0	 0.0; % PEL
	27471	 57.0	 0.0	 42.0	 -3.0	 1.0	 75.0	 0	 57.0	 25.0	 0.0	 0.0	 0.0	 0.0	 0.0	 0.0	 0.0	 0.0	 0.0	 0.0	 0.0; % NG
	27472	 51.8	 0.0	 40.0	 -3.0	 1.0	 75.0	 0	 51.8	 25.0	 0.0	 0.0	 0.0	 0.0	 0.0	 0.0	 0.0	 0.0	 0.0	 0.0	 0.0; % PEL
	27473	 121.0	 0.0	 82.0	 -48.0	 1.0	 150.0	 0	 121.0	 30.0	 0.0	 0.0	 0.0	 0.0	 0.0	 0.0	 0.0	 0.0	 0.0	 0.0	 0.0; % NG
	27771	 12.368	 -6.09	 13.0	 -13.61	 1.0	 41.4	 1	 41.225	 0.0	 0.0	 0.0	 0.0	 0.0	 0.0	 0.0	 0.0	 0.0	 0.0	 0.0	 0.0; % NG
	27772	 3.0	 -2.0	 -2.0	 -2.0	 1.0	 11.912	 1	 10.0	 0.0	 0.0	 0.0	 0.0	 0.0	 0.0	 0.0	 0.0	 0.0	 0.0	 0.0	 0.0; % NG
	27773	 1.5	 -1.0	 -1.0	 -1.0	 1.0	 4.6	 1	 5.0	 0.0	 0.0	 0.0	 0.0	 0.0	 0.0	 0.0	 0.0	 0.0	 0.0	 0.0	 0.0; % NG
	27774	 5.4	 -3.0	 -3.0	 -3.0	 1.0	 18.4	 1	 18.0	 0.0	 0.0	 0.0	 0.0	 0.0	 0.0	 0.0	 0.0	 0.0	 0.0	 0.0	 0.0; % NG
	27871	 0.99	 -0.7	 -0.7	 -0.7	 1.0	 3.3	 1	 3.3	 0.0	 0.0	 0.0	 0.0	 0.0	 0.0	 0.0	 0.0	 0.0	 0.0	 0.0	 0.0; % NG
	28071	 4.5	 -6.0	 -6.0	 -6.0	 1.0	 15.0	 1	 15.0	 0.0	 0.0	 0.0	 0.0	 0.0	 0.0	 0.0	 0.0	 0.0	 0.0	 0.0	 0.0; % NG
	28271	 0.9	 -1.2	 -1.2	 -1.2	 1.04	 3.34	 1	 3.0	 0.0	 0.0	 0.0	 0.0	 0.0	 0.0	 0.0	 0.0	 0.0	 0.0	 0.0	 0.0; % PEL
	28571	 111.0	 -112.37	 282.1	 -190.0	 1.0	 535.5	 1	 450.5	 110.1	 0.0	 0.0	 0.0	 0.0	 0.0	 0.0	 0.0	 0.0	 0.0	 0.0	 0.0; % COW
	28872	 3.15	 0.0	 0.0	 0.0	 1.04	 13.8	 1	 10.5	 0.0	 0.0	 0.0	 0.0	 0.0	 0.0	 0.0	 0.0	 0.0	 0.0	 0.0	 0.0; % PEL
	28873	 4.95	 -5.42	 5.42	 -5.42	 1.0	 18.4	 1	 16.5	 0.0	 0.0	 0.0	 0.0	 0.0	 0.0	 0.0	 0.0	 0.0	 0.0	 0.0	 0.0; % NG
	28874	 7.8	 0.0	 0.0	 0.0	 1.0	 27.6	 1	 26.0	 0.0	 0.0	 0.0	 0.0	 0.0	 0.0	 0.0	 0.0	 0.0	 0.0	 0.0	 0.0; % PEL
	29671	 123.0	 0.0	 107.0	 -53.0	 1.0	 150.0	 0	 123.0	 40.0	 0.0	 0.0	 0.0	 0.0	 0.0	 0.0	 0.0	 0.0	 0.0	 0.0	 0.0; % NG
	29672	 138.0	 -87.0	 181.0	 -87.0	 1.0	 288.0	 1	 236.2	 138.0	 0.0	 0.0	 0.0	 0.0	 0.0	 0.0	 0.0	 0.0	 0.0	 0.0	 0.0; % COW
	29673	 400.0	 -170.0	 255.0	 -170.0	 1.0	 473.0	 0	 400.0	 194.0	 0.0	 0.0	 0.0	 0.0	 0.0	 0.0	 0.0	 0.0	 0.0	 0.0	 0.0; % NG
	30671	 15.0	 0.0	 13.0	 -4.0	 1.0	 21.4	 0	 15.0	 4.0	 0.0	 0.0	 0.0	 0.0	 0.0	 0.0	 0.0	 0.0	 0.0	 0.0	 0.0; % NG
	30671	 4.0	 0.0	 3.0	 -1.0	 1.0	 5.7	 0	 4.0	 1.0	 0.0	 0.0	 0.0	 0.0	 0.0	 0.0	 0.0	 0.0	 0.0	 0.0	 0.0; % NG
	31071	 0.765	 0.0	 0.0	 0.0	 1.0	 2.55	 1	 2.55	 0.0	 0.0	 0.0	 0.0	 0.0	 0.0	 0.0	 0.0	 0.0	 0.0	 0.0	 0.0; % PEL
	31074	 0.765	 0.0	 0.0	 0.0	 1.04	 2.55	 1	 2.55	 0.0	 0.0	 0.0	 0.0	 0.0	 0.0	 0.0	 0.0	 0.0	 0.0	 0.0	 0.0; % PEL
	31271	 163.0	 -100.0	 295.0	 -100.0	 1.0	 500.0	 1	 409.9	 163.0	 0.0	 0.0	 0.0	 0.0	 0.0	 0.0	 0.0	 0.0	 0.0	 0.0	 0.0; % NG
	32404	 4.26	 -1.0	 1.0	 -1.0	 1.04	 4.8	 1	 4.26	 0.0	 0.0	 0.0	 0.0	 0.0	 0.0	 0.0	 0.0	 0.0	 0.0	 0.0	 0.0; % NG
	32576	 3.36	 -2.998	 0.0	 -5.03	 1.0	 11.2	 1	 11.2	 0.0	 0.0	 0.0	 0.0	 0.0	 0.0	 0.0	 0.0	 0.0	 0.0	 0.0	 0.0; % NG
	32577	 1.08	 -0.945	 0.0	 -5.03	 1.0	 3.6	 1	 3.6	 0.0	 0.0	 0.0	 0.0	 0.0	 0.0	 0.0	 0.0	 0.0	 0.0	 0.0	 0.0; % NG
	32578	 1.25	 0.0	 0.0	 0.0	 1.0	 1.25	 0	 1.25	 0.0	 0.0	 0.0	 0.0	 0.0	 0.0	 0.0	 0.0	 0.0	 0.0	 0.0	 0.0; % PEL
	32604	 7.5	 0.0	 1.0	 -1.0	 1.05	 8.5	 0	 7.5	 2.0	 0.0	 0.0	 0.0	 0.0	 0.0	 0.0	 0.0	 0.0	 0.0	 0.0	 0.0; % COW
	32604	 0.18	 0.0	 0.0	 0.0	 1.05	 0.2	 0	 0.18	 0.0	 0.0	 0.0	 0.0	 0.0	 0.0	 0.0	 0.0	 0.0	 0.0	 0.0	 0.0; % PEL
	33071	 1.35	 -1.312	 0.0	 -1.48	 1.0	 4.0	 1	 4.5	 0.0	 0.0	 0.0	 0.0	 0.0	 0.0	 0.0	 0.0	 0.0	 0.0	 0.0	 0.0; % PEL
	33072	 2.805	 0.0	 0.0	 0.0	 1.04	 9.35	 1	 9.35	 0.0	 0.0	 0.0	 0.0	 0.0	 0.0	 0.0	 0.0	 0.0	 0.0	 0.0	 0.0; % COW
	35071	 1.38	 -1.64	 -1.64	 -2.13	 1.0	 4.6	 1	 4.6	 0.0	 0.0	 0.0	 0.0	 0.0	 0.0	 0.0	 0.0	 0.0	 0.0	 0.0	 0.0; % PEL
	35074	 70.0	 -27.98	 60.0	 -39.0	 1.0	 121.1	 1	 103.3	 70.0	 0.0	 0.0	 0.0	 0.0	 0.0	 0.0	 0.0	 0.0	 0.0	 0.0	 0.0; % NG
	35871	 0.765	 0.0	 0.0	 0.0	 1.0	 2.55	 1	 2.55	 0.0	 0.0	 0.0	 0.0	 0.0	 0.0	 0.0	 0.0	 0.0	 0.0	 0.0	 0.0; % COW
	35872	 0.735	 0.0	 0.0	 0.0	 1.0	 2.55	 1	 2.45	 0.0	 0.0	 0.0	 0.0	 0.0	 0.0	 0.0	 0.0	 0.0	 0.0	 0.0	 0.0; % PEL
	35873	 0.96	 0.0	 0.0	 0.0	 1.0	 3.2	 1	 3.2	 0.0	 0.0	 0.0	 0.0	 0.0	 0.0	 0.0	 0.0	 0.0	 0.0	 0.0	 0.0; % NG
	35875	 4.5	 -6.0	 -6.0	 -6.0	 1.0	 17.7	 1	 15.0	 0.0	 0.0	 0.0	 0.0	 0.0	 0.0	 0.0	 0.0	 0.0	 0.0	 0.0	 0.0; % COW
	35876	 3.564	 -4.8	 -4.8	 -4.8	 1.0	 11.88	 1	 11.88	 0.0	 0.0	 0.0	 0.0	 0.0	 0.0	 0.0	 0.0	 0.0	 0.0	 0.0	 0.0; % NG
	35877	 1.497	 0.0	 0.0	 0.0	 1.0	 5.4	 1	 4.99	 0.0	 0.0	 0.0	 0.0	 0.0	 0.0	 0.0	 0.0	 0.0	 0.0	 0.0	 0.0; % NG
	36271	 10.8	 8.037	 12.0	 -12.0	 1.0	 36.0	 1	 36.0	 0.0	 0.0	 0.0	 0.0	 0.0	 0.0	 0.0	 0.0	 0.0	 0.0	 0.0	 0.0; % PEL
	36272	 5.7	 5.023	 7.5	 -75.0	 1.0	 20.0	 1	 19.0	 0.0	 0.0	 0.0	 0.0	 0.0	 0.0	 0.0	 0.0	 0.0	 0.0	 0.0	 0.0; % PEL
	36471	 4.335	 0.0	 0.0	 0.0	 1.0	 15.0	 1	 14.45	 0.0	 0.0	 0.0	 0.0	 0.0	 0.0	 0.0	 0.0	 0.0	 0.0	 0.0	 0.0; % NG
	36472	 1.2	 -1.31	 -1.31	 -1.7	 1.04	 4.6	 1	 4.0	 0.0	 0.0	 0.0	 0.0	 0.0	 0.0	 0.0	 0.0	 0.0	 0.0	 0.0	 0.0; % NG
	36473	 1.38	 0.0	 0.0	 0.0	 1.0	 4.6	 1	 4.6	 0.0	 0.0	 0.0	 0.0	 0.0	 0.0	 0.0	 0.0	 0.0	 0.0	 0.0	 0.0; % PEL
	36474	 1.08	 -1.18	 -1.18	 -1.53	 1.04	 4.0	 1	 3.6	 0.0	 0.0	 0.0	 0.0	 0.0	 0.0	 0.0	 0.0	 0.0	 0.0	 0.0	 0.0; % NG
	36475	 1.2	 -1.2	 -1.2	 -1.2	 1.04	 4.6	 1	 4.0	 0.0	 0.0	 0.0	 0.0	 0.0	 0.0	 0.0	 0.0	 0.0	 0.0	 0.0	 0.0; % PEL
	36476	 4.44	 4.0	 4.0	 -4.0	 1.04	 17.868	 1	 14.8	 0.0	 0.0	 0.0	 0.0	 0.0	 0.0	 0.0	 0.0	 0.0	 0.0	 0.0	 0.0; % NG
	38071	 0.48	 -0.56	 -0.56	 -0.56	 1.0	 1.6	 1	 1.6	 0.0	 0.0	 0.0	 0.0	 0.0	 0.0	 0.0	 0.0	 0.0	 0.0	 0.0	 0.0; % PEL
	38244	 1.0	 0.0	 0.0	 0.0	 1.0	 6.5	 0	 1.0	 0.0	 0.0	 0.0	 0.0	 0.0	 0.0	 0.0	 0.0	 0.0	 0.0	 0.0	 0.0; % PEL
	38271	 3.15	 0.0	 0.0	 0.0	 1.04	 11.69	 1	 10.5	 0.0	 0.0	 0.0	 0.0	 0.0	 0.0	 0.0	 0.0	 0.0	 0.0	 0.0	 0.0; % NG
	38272	 1.35	 0.0	 0.0	 0.0	 1.04	 5.01	 1	 4.5	 0.0	 0.0	 0.0	 0.0	 0.0	 0.0	 0.0	 0.0	 0.0	 0.0	 0.0	 0.0; % NG
	38273	 2.25	 0.0	 0.0	 0.0	 1.04	 8.35	 1	 7.5	 0.0	 0.0	 0.0	 0.0	 0.0	 0.0	 0.0	 0.0	 0.0	 0.0	 0.0	 0.0; % NG
	38870	 7.59	 0.0	 0.0	 0.0	 1.04	 25.3	 1	 25.3	 0.0	 0.0	 0.0	 0.0	 0.0	 0.0	 0.0	 0.0	 0.0	 0.0	 0.0	 0.0; % NG
	38871	 2.625	 -1.686	 0.0	 -2.88	 1.0	 10.0	 1	 8.75	 0.0	 0.0	 0.0	 0.0	 0.0	 0.0	 0.0	 0.0	 0.0	 0.0	 0.0	 0.0; % NG
	39471	 302.0	 -54.306	 176.0	 -112.0	 1.0	 359.0	 0	 302.0	 99.0	 0.0	 0.0	 0.0	 0.0	 0.0	 0.0	 0.0	 0.0	 0.0	 0.0	 0.0; % NG
	39472	 194.713	 17.873	 176.0	 -112.0	 1.0	 359.0	 1	 303.0	 99.0	 0.0	 0.0	 0.0	 0.0	 0.0	 0.0	 0.0	 0.0	 0.0	 0.0	 0.0; % NG
	39473	 302.0	 0.0	 176.0	 -112.0	 1.0	 359.0	 0	 302.0	 99.0	 0.0	 0.0	 0.0	 0.0	 0.0	 0.0	 0.0	 0.0	 0.0	 0.0	 0.0; % NG
	39675	 90.0	 0.0	 60.0	 -19.0	 1.0	 100.9	 0	 90.0	 60.0	 0.0	 0.0	 0.0	 0.0	 0.0	 0.0	 0.0	 0.0	 0.0	 0.0	 0.0; % NG
	40471	 1.8	 0.0	 0.0	 0.0	 1.02	 6.9	 1	 6.0	 0.0	 0.0	 0.0	 0.0	 0.0	 0.0	 0.0	 0.0	 0.0	 0.0	 0.0	 0.0; % PEL
	40771	 15.87	 0.0	 0.0	 0.0	 1.0	 52.9	 1	 52.9	 0.0	 0.0	 0.0	 0.0	 0.0	 0.0	 0.0	 0.0	 0.0	 0.0	 0.0	 0.0; % NG
	40772	 5.418	 0.0	 0.0	 0.0	 1.0	 19.5	 1	 18.06	 0.0	 0.0	 0.0	 0.0	 0.0	 0.0	 0.0	 0.0	 0.0	 0.0	 0.0	 0.0; % PEL
	40773	 4.2	 0.0	 0.0	 0.0	 1.0	 16.1	 1	 14.0	 0.0	 0.0	 0.0	 0.0	 0.0	 0.0	 0.0	 0.0	 0.0	 0.0	 0.0	 0.0; % NG
	42404	 15.0	 0.0	 5.0	 0.0	 1.0	 20.0	 0	 15.0	 6.0	 0.0	 0.0	 0.0	 0.0	 0.0	 0.0	 0.0	 0.0	 0.0	 0.0	 0.0; % NG
	42404	 15.0	 0.0	 5.0	 0.0	 1.0	 20.0	 0	 15.0	 6.0	 0.0	 0.0	 0.0	 0.0	 0.0	 0.0	 0.0	 0.0	 0.0	 0.0	 0.0; % PEL
	42404	 15.0	 0.0	 5.0	 0.0	 1.0	 20.0	 0	 15.0	 6.0	 0.0	 0.0	 0.0	 0.0	 0.0	 0.0	 0.0	 0.0	 0.0	 0.0	 0.0; % NG
	42474	 118.0	 0.0	 55.0	 -20.0	 1.0	 132.1	 0	 118.0	 40.0	 0.0	 0.0	 0.0	 0.0	 0.0	 0.0	 0.0	 0.0	 0.0	 0.0	 0.0; % NG
	42475	 109.5	 0.0	 55.0	 -20.0	 1.0	 132.1	 0	 109.5	 20.0	 0.0	 0.0	 0.0	 0.0	 0.0	 0.0	 0.0	 0.0	 0.0	 0.0	 0.0; % COW
	42672	 0.732	 -1.07	 -0.83	 -1.07	 1.0	 2.55	 1	 2.44	 0.0	 0.0	 0.0	 0.0	 0.0	 0.0	 0.0	 0.0	 0.0	 0.0	 0.0	 0.0; % PEL
	42673	 1.17	 -1.3	 -1.3	 -1.3	 1.0	 4.6	 1	 3.9	 0.0	 0.0	 0.0	 0.0	 0.0	 0.0	 0.0	 0.0	 0.0	 0.0	 0.0	 0.0; % NG
	42674	 0.765	 0.0	 0.0	 0.0	 1.0	 2.55	 1	 2.55	 0.0	 0.0	 0.0	 0.0	 0.0	 0.0	 0.0	 0.0	 0.0	 0.0	 0.0	 0.0; % PEL
	43671	 2.07	 0.0	 0.0	 0.0	 1.0	 6.9	 1	 6.9	 0.0	 0.0	 0.0	 0.0	 0.0	 0.0	 0.0	 0.0	 0.0	 0.0	 0.0	 0.0; % PEL
	43672	 0.69	 0.0	 0.0	 0.0	 1.0	 2.3	 1	 2.3	 0.0	 0.0	 0.0	 0.0	 0.0	 0.0	 0.0	 0.0	 0.0	 0.0	 0.0	 0.0; % PEL
	43774	 10.245	 -10.0	 10.0	 -10.0	 1.0	 36.8	 1	 34.15	 0.0	 0.0	 0.0	 0.0	 0.0	 0.0	 0.0	 0.0	 0.0	 0.0	 0.0	 0.0; % COW
	44471	 15.0	 0.0	 9.0	 -10.0	 1.0	 18.8	 0	 15.0	 5.0	 0.0	 0.0	 0.0	 0.0	 0.0	 0.0	 0.0	 0.0	 0.0	 0.0	 0.0; % COW
	44471	 15.0	 0.0	 9.0	 -10.0	 1.0	 18.8	 0	 15.0	 5.0	 0.0	 0.0	 0.0	 0.0	 0.0	 0.0	 0.0	 0.0	 0.0	 0.0	 0.0; % NG
	44471	 4.0	 0.0	 3.0	 -1.0	 1.0	 5.0	 0	 4.0	 1.0	 0.0	 0.0	 0.0	 0.0	 0.0	 0.0	 0.0	 0.0	 0.0	 0.0	 0.0; % COW
	46801	 6.5	 0.0	 0.0	 0.0	 1.04	 6.75	 0	 6.5	 2.0	 0.0	 0.0	 0.0	 0.0	 0.0	 0.0	 0.0	 0.0	 0.0	 0.0	 0.0; % NG
	46854	 3.2	 0.0	 0.0	 0.0	 1.04	 3.2	 0	 3.2	 3.2	 0.0	 0.0	 0.0	 0.0	 0.0	 0.0	 0.0	 0.0	 0.0	 0.0	 0.0; % NG
	46870	 0.75	 -1.0	 -1.0	 -1.0	 1.0	 4.6	 1	 2.5	 0.0	 0.0	 0.0	 0.0	 0.0	 0.0	 0.0	 0.0	 0.0	 0.0	 0.0	 0.0; % PEL
	46873	 3.75	 0.0	 0.0	 0.0	 1.04	 15.0	 1	 12.5	 0.0	 0.0	 0.0	 0.0	 0.0	 0.0	 0.0	 0.0	 0.0	 0.0	 0.0	 0.0; % PEL
	46874	 4.5	 -5.0	 -5.0	 -5.0	 1.0	 17.868	 1	 15.0	 0.0	 0.0	 0.0	 0.0	 0.0	 0.0	 0.0	 0.0	 0.0	 0.0	 0.0	 0.0; % NG
	46875	 2.4	 0.0	 0.0	 0.0	 1.0	 3.0	 0	 2.4	 0.0	 0.0	 0.0	 0.0	 0.0	 0.0	 0.0	 0.0	 0.0	 0.0	 0.0	 0.0; % PEL
	47871	 14.4	 -16.0	 16.0	 -16.0	 1.0	 53.44	 1	 48.0	 0.0	 0.0	 0.0	 0.0	 0.0	 0.0	 0.0	 0.0	 0.0	 0.0	 0.0	 0.0; % PEL
	47872	 9.18	 0.0	 0.0	 0.0	 1.0	 28.39	 1	 30.6	 0.0	 0.0	 0.0	 0.0	 0.0	 0.0	 0.0	 0.0	 0.0	 0.0	 0.0	 0.0; % PEL
	47873	 1.746	 0.0	 0.0	 0.0	 1.0	 6.68	 1	 5.82	 0.0	 0.0	 0.0	 0.0	 0.0	 0.0	 0.0	 0.0	 0.0	 0.0	 0.0	 0.0; % NG
	49474	 55.0	 -35.035	 93.0	 -59.0	 1.0	 181.7	 1	 154.3	 55.0	 0.0	 0.0	 0.0	 0.0	 0.0	 0.0	 0.0	 0.0	 0.0	 0.0	 0.0; % NG
	49604	 0.7	 0.0	 0.0	 0.0	 1.0	 1.0	 0	 0.7	 0.0	 0.0	 0.0	 0.0	 0.0	 0.0	 0.0	 0.0	 0.0	 0.0	 0.0	 0.0; % NG
	49672	 0.9	 0.0	 0.0	 0.0	 1.04	 3.34	 1	 3.0	 0.0	 0.0	 0.0	 0.0	 0.0	 0.0	 0.0	 0.0	 0.0	 0.0	 0.0	 0.0; % NG
	49971	 9.45	 0.0	 0.0	 0.0	 1.0	 32.0	 1	 31.5	 0.0	 0.0	 0.0	 0.0	 0.0	 0.0	 0.0	 0.0	 0.0	 0.0	 0.0	 0.0; % PEL
	49973	 2.07	 -1.4	 1.4	 -1.4	 1.0	 6.9	 1	 6.9	 0.0	 0.0	 0.0	 0.0	 0.0	 0.0	 0.0	 0.0	 0.0	 0.0	 0.0	 0.0; % NG
	49975	 1.26	 -1.79	 -1.38	 -1.79	 1.0	 4.6	 1	 4.2	 0.0	 0.0	 0.0	 0.0	 0.0	 0.0	 0.0	 0.0	 0.0	 0.0	 0.0	 0.0; % NG
	49976	 2.76	 -2.0	 2.0	 -2.0	 1.0	 9.2	 1	 9.2	 0.0	 0.0	 0.0	 0.0	 0.0	 0.0	 0.0	 0.0	 0.0	 0.0	 0.0	 0.0; % NG
	49980	 0.18	 0.0	 0.0	 0.0	 1.0	 2.3	 1	 0.6	 0.0	 0.0	 0.0	 0.0	 0.0	 0.0	 0.0	 0.0	 0.0	 0.0	 0.0	 0.0; % PEL
	50071	 2.295	 0.0	 0.0	 0.0	 1.04	 7.65	 1	 7.65	 0.0	 0.0	 0.0	 0.0	 0.0	 0.0	 0.0	 0.0	 0.0	 0.0	 0.0	 0.0; % COW
...
];

%% generator cost data
%	2	startup	shutdown	n	c(n-1)	...	c0
mpc.gencost = [
	2	 0.0	 0.0	 3	   0.000000	   6.705772	   0.000000; % PEL
	2	 0.0	 0.0	 3	   0.000000	   6.772304	   0.000000; % PEL
	2	 0.0	 0.0	 3	   0.000000	   1.102916	   0.000000; % NG
	2	 0.0	 0.0	 3	   0.000000	   6.529801	   0.000000; % PEL
	2	 0.0	 0.0	 3	   0.000000	   6.987836	   0.000000; % PEL
	2	 0.0	 0.0	 3	   0.000000	   7.065571	   0.000000; % PEL
	2	 0.0	 0.0	 3	   0.000000	   0.731229	   0.000000; % COW
	2	 0.0	 0.0	 3	   0.000000	   0.868435	   0.000000; % NG
	2	 0.0	 0.0	 3	   0.000000	   1.310791	   0.000000; % NG
	2	 0.0	 0.0	 3	   0.000000	   1.029123	   0.000000; % NG
	2	 0.0	 0.0	 3	   0.000000	   0.769455	   0.000000; % NG
	2	 0.0	 0.0	 3	   0.000000	   1.409602	   0.000000; % NG
	2	 0.0	 0.0	 3	   0.000000	   1.192949	   0.000000; % NG
	2	 0.0	 0.0	 3	   0.000000	   6.647226	   0.000000; % PEL
	2	 0.0	 0.0	 3	   0.000000	   6.875859	   0.000000; % PEL
	2	 0.0	 0.0	 3	   0.000000	   7.091964	   0.000000; % PEL
	2	 0.0	 0.0	 3	   0.000000	   1.420246	   0.000000; % NG
	2	 0.0	 0.0	 3	   0.000000	   0.787263	   0.000000; % COW
	2	 0.0	 0.0	 3	   0.000000	   1.039979	   0.000000; % NG
	2	 0.0	 0.0	 3	   0.000000	   1.108238	   0.000000; % NG
	2	 0.0	 0.0	 3	   0.000000	   0.927958	   0.000000; % NG
	2	 0.0	 0.0	 3	   0.000000	   1.275032	   0.000000; % NG
	2	 0.0	 0.0	 3	   0.000000	   1.162355	   0.000000; % NG
	2	 0.0	 0.0	 3	   0.000000	   6.713898	   0.000000; % PEL
	2	 0.0	 0.0	 3	   0.000000	   1.281454	   0.000000; % NG
	2	 0.0	 0.0	 3	   0.000000	   1.124515	   0.000000; % NG
	2	 0.0	 0.0	 3	   0.000000	   6.678135	   0.000000; % PEL
	2	 0.0	 0.0	 3	   0.000000	   6.705985	   0.000000; % PEL
	2	 0.0	 0.0	 3	   0.000000	   1.125291	   0.000000; % NG
	2	 0.0	 0.0	 3	   0.000000	   0.663376	   0.000000; % NG
	2	 0.0	 0.0	 3	   0.000000	   1.177870	   0.000000; % NG
	2	 0.0	 0.0	 3	   0.000000	   7.432097	   0.000000; % PEL
	2	 0.0	 0.0	 3	   0.000000	   6.694058	   0.000000; % PEL
	2	 0.0	 0.0	 3	   0.000000	   1.280592	   0.000000; % NG
	2	 0.0	 0.0	 3	   0.000000	   0.940723	   0.000000; % NG
	2	 0.0	 0.0	 3	   0.000000	   1.250777	   0.000000; % NG
	2	 0.0	 0.0	 3	   0.000000	   0.962257	   0.000000; % NG
	2	 0.0	 0.0	 3	   0.000000	   6.005345	   0.000000; % PEL
	2	 0.0	 0.0	 3	   0.000000	   6.517350	   0.000000; % PEL
	2	 0.0	 0.0	 3	   0.000000	   6.997547	   0.000000; % PEL
	2	 0.0	 0.0	 3	   0.000000	   7.191985	   0.000000; % PEL
	2	 0.0	 0.0	 3	   0.000000	   7.475277	   0.000000; % PEL
	2	 0.0	 0.0	 3	   0.000000	   6.374840	   0.000000; % PEL
	2	 0.0	 0.0	 3	   0.000000	   1.194453	   0.000000; % NG
	2	 0.0	 0.0	 3	   0.000000	   1.225400	   0.000000; % NG
	2	 0.0	 0.0	 3	   0.000000	   1.037024	   0.000000; % NG
	2	 0.0	 0.0	 3	   0.000000	   0.405182	   0.000000; % NG
	2	 0.0	 0.0	 3	   0.000000	   1.141187	   0.000000; % NG
	2	 0.0	 0.0	 3	   0.000000	   7.008430	   0.000000; % PEL
	2	 0.0	 0.0	 3	   0.000000	   6.633995	   0.000000; % PEL
	2	 0.0	 0.0	 3	   0.000000	   1.072361	   0.000000; % NG
	2	 0.0	 0.0	 3	   0.000000	   6.947406	   0.000000; % PEL
	2	 0.0	 0.0	 3	   0.000000	   6.817148	   0.000000; % PEL
	2	 0.0	 0.0	 3	   0.000000	   0.966577	   0.000000; % NG
	2	 0.0	 0.0	 3	   0.000000	   1.155131	   0.000000; % NG
	2	 0.0	 0.0	 3	   0.000000	   1.303670	   0.000000; % NG
	2	 0.0	 0.0	 3	   0.000000	   6.865308	   0.000000; % PEL
	2	 0.0	 0.0	 3	   0.000000	   0.805960	   0.000000; % COW
	2	 0.0	 0.0	 3	   0.000000	   6.455197	   0.000000; % PEL
	2	 0.0	 0.0	 3	   0.000000	   6.881799	   0.000000; % PEL
	2	 0.0	 0.0	 3	   0.000000	   0.980462	   0.000000; % NG
	2	 0.0	 0.0	 3	   0.000000	   1.029919	   0.000000; % NG
	2	 0.0	 0.0	 3	   0.000000	   1.228166	   0.000000; % NG
	2	 0.0	 0.0	 3	   0.000000	   6.927709	   0.000000; % PEL
	2	 0.0	 0.0	 3	   0.000000	   6.919956	   0.000000; % PEL
	2	 0.0	 0.0	 3	   0.000000	   0.759011	   0.000000; % NG
	2	 0.0	 0.0	 3	   0.000000	   1.172854	   0.000000; % NG
	2	 0.0	 0.0	 3	   0.000000	   1.119278	   0.000000; % NG
	2	 0.0	 0.0	 3	   0.000000	   0.000000	   0.000000; % SYNC
	2	 0.0	 0.0	 3	   0.000000	   1.221331	   0.000000; % NG
	2	 0.0	 0.0	 3	   0.000000	   0.903735	   0.000000; % NG
	2	 0.0	 0.0	 3	   0.000000	   1.063945	   0.000000; % NG
	2	 0.0	 0.0	 3	   0.000000	   6.967847	   0.000000; % PEL
	2	 0.0	 0.0	 3	   0.000000	   7.039919	   0.000000; % PEL
	2	 0.0	 0.0	 3	   0.000000	   1.388681	   0.000000; % COW
	2	 0.0	 0.0	 3	   0.000000	   1.033905	   0.000000; % NG
	2	 0.0	 0.0	 3	   0.000000	   0.805743	   0.000000; % NG
	2	 0.0	 0.0	 3	   0.000000	   1.141638	   0.000000; % NG
	2	 0.0	 0.0	 3	   0.000000	   7.030594	   0.000000; % PEL
	2	 0.0	 0.0	 3	   0.000000	   6.610447	   0.000000; % PEL
	2	 0.0	 0.0	 3	   0.000000	   6.331500	   0.000000; % PEL
	2	 0.0	 0.0	 3	   0.000000	   1.150889	   0.000000; % NG
	2	 0.0	 0.0	 3	   0.000000	   7.056868	   0.000000; % PEL
	2	 0.0	 0.0	 3	   0.000000	   0.912271	   0.000000; % COW
	2	 0.0	 0.0	 3	   0.000000	   6.415364	   0.000000; % PEL
	2	 0.0	 0.0	 3	   0.000000	   7.338133	   0.000000; % PEL
	2	 0.0	 0.0	 3	   0.000000	   1.180430	   0.000000; % NG
	2	 0.0	 0.0	 3	   0.000000	   1.010379	   0.000000; % NG
	2	 0.0	 0.0	 3	   0.000000	   0.817841	   0.000000; % NG
	2	 0.0	 0.0	 3	   0.000000	   1.166509	   0.000000; % NG
	2	 0.0	 0.0	 3	   0.000000	   0.922434	   0.000000; % NG
	2	 0.0	 0.0	 3	   0.000000	   7.381410	   0.000000; % PEL
	2	 0.0	 0.0	 3	   0.000000	   6.848013	   0.000000; % PEL
	2	 0.0	 0.0	 3	   0.000000	   6.584401	   0.000000; % PEL
	2	 0.0	 0.0	 3	   0.000000	   6.672683	   0.000000; % PEL
	2	 0.0	 0.0	 3	   0.000000	   0.651334	   0.000000; % COW
	2	 0.0	 0.0	 3	   0.000000	   1.226720	   0.000000; % NG
	2	 0.0	 0.0	 3	   0.000000	   6.648268	   0.000000; % PEL
	2	 0.0	 0.0	 3	   0.000000	   1.131771	   0.000000; % NG
	2	 0.0	 0.0	 3	   0.000000	   1.082005	   0.000000; % NG
	2	 0.0	 0.0	 3	   0.000000	   6.953552	   0.000000; % PEL
	2	 0.0	 0.0	 3	   0.000000	   1.072836	   0.000000; % NG
	2	 0.0	 0.0	 3	   0.000000	   1.396655	   0.000000; % NG
	2	 0.0	 0.0	 3	   0.000000	   1.191793	   0.000000; % NG
	2	 0.0	 0.0	 3	   0.000000	   0.000000	   0.000000; % SYNC
	2	 0.0	 0.0	 3	   0.000000	   0.421518	   0.000000; % COW
	2	 0.0	 0.0	 3	   0.000000	   7.259057	   0.000000; % PEL
	2	 0.0	 0.0	 3	   0.000000	   0.937303	   0.000000; % NG
	2	 0.0	 0.0	 3	   0.000000	   6.997530	   0.000000; % PEL
	2	 0.0	 0.0	 3	   0.000000	   1.053643	   0.000000; % NG
	2	 0.0	 0.0	 3	   0.000000	   0.801435	   0.000000; % NG
	2	 0.0	 0.0	 3	   0.000000	   0.965035	   0.000000; % NG
	2	 0.0	 0.0	 3	   0.000000	   1.149117	   0.000000; % NG
	2	 0.0	 0.0	 3	   0.000000	   0.825890	   0.000000; % NG
	2	 0.0	 0.0	 3	   0.000000	   1.348884	   0.000000; % NG
	2	 0.0	 0.0	 3	   0.000000	   1.414237	   0.000000; % NG
	2	 0.0	 0.0	 3	   0.000000	   6.919459	   0.000000; % PEL
	2	 0.0	 0.0	 3	   0.000000	   0.582786	   0.000000; % COW
	2	 0.0	 0.0	 3	   0.000000	   6.824631	   0.000000; % PEL
	2	 0.0	 0.0	 3	   0.000000	   1.002012	   0.000000; % NG
	2	 0.0	 0.0	 3	   0.000000	   7.007134	   0.000000; % PEL
	2	 0.0	 0.0	 3	   0.000000	   0.911719	   0.000000; % NG
	2	 0.0	 0.0	 3	   0.000000	   0.687332	   0.000000; % COW
	2	 0.0	 0.0	 3	   0.000000	   1.258238	   0.000000; % NG
	2	 0.0	 0.0	 3	   0.000000	   1.316270	   0.000000; % NG
	2	 0.0	 0.0	 3	   0.000000	   1.615844	   0.000000; % NG
	2	 0.0	 0.0	 3	   0.000000	   6.966947	   0.000000; % PEL
	2	 0.0	 0.0	 3	   0.000000	   6.668267	   0.000000; % PEL
	2	 0.0	 0.0	 3	   0.000000	   0.983129	   0.000000; % NG
	2	 0.0	 0.0	 3	   0.000000	   0.823339	   0.000000; % NG
	2	 0.0	 0.0	 3	   0.000000	   1.545300	   0.000000; % NG
	2	 0.0	 0.0	 3	   0.000000	   1.240720	   0.000000; % NG
	2	 0.0	 0.0	 3	   0.000000	   6.518180	   0.000000; % PEL
	2	 0.0	 0.0	 3	   0.000000	   0.748153	   0.000000; % COW
	2	 0.0	 0.0	 3	   0.000000	   6.876191	   0.000000; % PEL
	2	 0.0	 0.0	 3	   0.000000	   7.053782	   0.000000; % PEL
	2	 0.0	 0.0	 3	   0.000000	   0.438078	   0.000000; % COW
	2	 0.0	 0.0	 3	   0.000000	   6.632386	   0.000000; % PEL
	2	 0.0	 0.0	 3	   0.000000	   1.212122	   0.000000; % NG
	2	 0.0	 0.0	 3	   0.000000	   1.083414	   0.000000; % COW
	2	 0.0	 0.0	 3	   0.000000	   6.798543	   0.000000; % PEL
	2	 0.0	 0.0	 3	   0.000000	   1.218276	   0.000000; % NG
	2	 0.0	 0.0	 3	   0.000000	   0.825765	   0.000000; % COW
	2	 0.0	 0.0	 3	   0.000000	   1.083146	   0.000000; % NG
	2	 0.0	 0.0	 3	   0.000000	   1.015007	   0.000000; % NG
	2	 0.0	 0.0	 3	   0.000000	   6.634967	   0.000000; % PEL
	2	 0.0	 0.0	 3	   0.000000	   6.868203	   0.000000; % PEL
	2	 0.0	 0.0	 3	   0.000000	   1.118175	   0.000000; % NG
	2	 0.0	 0.0	 3	   0.000000	   1.210870	   0.000000; % NG
	2	 0.0	 0.0	 3	   0.000000	   6.474980	   0.000000; % PEL
	2	 0.0	 0.0	 3	   0.000000	   0.574892	   0.000000; % NG
	2	 0.0	 0.0	 3	   0.000000	   7.060462	   0.000000; % PEL
	2	 0.0	 0.0	 3	   0.000000	   0.901130	   0.000000; % NG
	2	 0.0	 0.0	 3	   0.000000	   5.818735	   0.000000; % PEL
	2	 0.0	 0.0	 3	   0.000000	   6.340145	   0.000000; % PEL
	2	 0.0	 0.0	 3	   0.000000	   1.231079	   0.000000; % NG
	2	 0.0	 0.0	 3	   0.000000	   0.809809	   0.000000; % NG
	2	 0.0	 0.0	 3	   0.000000	   1.114238	   0.000000; % NG
	2	 0.0	 0.0	 3	   0.000000	   0.842322	   0.000000; % NG
	2	 0.0	 0.0	 3	   0.000000	   1.328013	   0.000000; % NG
	2	 0.0	 0.0	 3	   0.000000	   1.176455	   0.000000; % NG
	2	 0.0	 0.0	 3	   0.000000	   0.769402	   0.000000; % NG
	2	 0.0	 0.0	 3	   0.000000	   1.242298	   0.000000; % NG
	2	 0.0	 0.0	 3	   0.000000	   1.001568	   0.000000; % NG
	2	 0.0	 0.0	 3	   0.000000	   7.009657	   0.000000; % PEL
	2	 0.0	 0.0	 3	   0.000000	   0.919235	   0.000000; % NG
	2	 0.0	 0.0	 3	   0.000000	   6.687497	   0.000000; % PEL
	2	 0.0	 0.0	 3	   0.000000	   0.937065	   0.000000; % NG
	2	 0.0	 0.0	 3	   0.000000	   1.140277	   0.000000; % NG
	2	 0.0	 0.0	 3	   0.000000	   6.366980	   0.000000; % PEL
	2	 0.0	 0.0	 3	   0.000000	   1.159031	   0.000000; % NG
	2	 0.0	 0.0	 3	   0.000000	   0.922167	   0.000000; % NG
	2	 0.0	 0.0	 3	   0.000000	   0.671776	   0.000000; % COW
	2	 0.0	 0.0	 3	   0.000000	   7.074159	   0.000000; % PEL
	2	 0.0	 0.0	 3	   0.000000	   0.676459	   0.000000; % NG
	2	 0.0	 0.0	 3	   0.000000	   6.738815	   0.000000; % PEL
	2	 0.0	 0.0	 3	   0.000000	   6.241445	   0.000000; % PEL
	2	 0.0	 0.0	 3	   0.000000	   6.472714	   0.000000; % PEL
	2	 0.0	 0.0	 3	   0.000000	   0.452572	   0.000000; % COW
	2	 0.0	 0.0	 3	   0.000000	   0.489514	   0.000000; % COW
	2	 0.0	 0.0	 3	   0.000000	   0.993641	   0.000000; % NG
	2	 0.0	 0.0	 3	   0.000000	   0.817406	   0.000000; % COW
	2	 0.0	 0.0	 3	   0.000000	   0.901627	   0.000000; % NG
	2	 0.0	 0.0	 3	   0.000000	   1.029975	   0.000000; % NG
	2	 0.0	 0.0	 3	   0.000000	   7.046501	   0.000000; % PEL
	2	 0.0	 0.0	 3	   0.000000	   6.834992	   0.000000; % PEL
	2	 0.0	 0.0	 3	   0.000000	   1.080094	   0.000000; % NG
	2	 0.0	 0.0	 3	   0.000000	   6.645704	   0.000000; % PEL
	2	 0.0	 0.0	 3	   0.000000	   6.859937	   0.000000; % PEL
	2	 0.0	 0.0	 3	   0.000000	   6.894054	   0.000000; % PEL
	2	 0.0	 0.0	 3	   0.000000	   1.300743	   0.000000; % NG
	2	 0.0	 0.0	 3	   0.000000	   1.420839	   0.000000; % NG
	2	 0.0	 0.0	 3	   0.000000	   0.769218	   0.000000; % NG
	2	 0.0	 0.0	 3	   0.000000	   1.106376	   0.000000; % NG
	2	 0.0	 0.0	 3	   0.000000	   7.116984	   0.000000; % PEL
	2	 0.0	 0.0	 3	   0.000000	   1.048553	   0.000000; % NG
	2	 0.0	 0.0	 3	   0.000000	   1.158786	   0.000000; % NG
	2	 0.0	 0.0	 3	   0.000000	   1.229945	   0.000000; % NG
	2	 0.0	 0.0	 3	   0.000000	   7.213575	   0.000000; % PEL
	2	 0.0	 0.0	 3	   0.000000	   0.722605	   0.000000; % COW
...
];

%% branch data
%	fbus	tbus	r	x	b	rateA	rateB	rateC	ratio	angle	status	angmin	angmax
mpc.branch = [
	11	 42404	 0.0036	 0.00391	 0.00207	 100.0	 100.0	 110.0	 0.0	 0.0	 1	 -30.0	 30.0;
	12	 25404	 0.00534	 0.00795	 0.00407	 3604	 3604	 3604	 0.0	 0.0	 1	 -30.0	 30.0;
	12	 25404	 0.00594	 0.00866	 0.00435	 3287	 3287	 3287	 0.0	 0.0	 1	 -30.0	 30.0;
	12	 46504	 0.02132	 0.02114	 0.00329	 1149	 1149	 1149	 0.0	 0.0	 1	 -30.0	 30.0;
	12	 46504	 0.01937	 0.01703	 0.00256	 1338	 1338	 1338	 0.0	 0.0	 1	 -30.0	 30.0;
	1021	 2121	 0.0286	 0.067	 0.0059	 105.0	 105.0	 115.5	 0.0	 0.0	 1	 -30.0	 30.0;
	1021	 2361	 0.0513	 0.1172	 0.0106	 105.0	 105.0	 115.5	 0.0	 0.0	 1	 -30.0	 30.0;
	1021	 3541	 0.0071	 0.037	 0.0116	 99.0	 99.0	 108.9	 0.0	 0.0	 1	 -30.0	 30.0;
	1021	 10210	 0.0	 0.0001	 0.0	 999.0	 999.0	 1098.9	 0.0	 0.0	 1	 -30.0	 30.0;
	1021	 10261	 0.0	 0.0001	 0.0	 105.0	 105.0	 115.5	 0.0	 0.0	 1	 -30.0	 30.0;
	1041	 5481	 0.0049	 0.0107	 0.001	 105.0	 105.0	 115.5	 0.0	 0.0	 1	 -30.0	 30.0;
	1042	 1052	 0.0	 0.0001	 0.0	 9999.0	 9999.0	 10998.9	 0.0	 0.0	 0	 -30.0	 30.0;
	1042	 1062	 0.0	 0.0001	 0.0	 593.0	 593.0	 652.3	 0.0	 0.0	 1	 -30.0	 30.0;
	1042	 1072	 0.0001	 0.0006	 0.0384	 593.0	 593.0	 652.3	 0.0	 0.0	 1	 -30.0	 30.0;
	1042	 3202	 0.003	 0.0222	 0.0335	 434.0	 434.0	 477.4	 0.0	 0.0	 1	 -30.0	 30.0;
	1042	 4722	 0.0012	 0.0078	 0.2591	 434.0	 434.0	 477.4	 0.0	 0.0	 1	 -30.0	 30.0;
	1042	 35771	 0.0001	 0.0004	 0.0265	 593.0	 593.0	 652.3	 0.0	 0.0	 1	 -30.0	 30.0;
	1052	 1062	 0.0	 0.0001	 0.0	 999.0	 999.0	 1098.9	 0.0	 0.0	 0	 -30.0	 30.0;
	1052	 2852	 0.0002	 0.0015	 0.1035	 593.0	 593.0	 652.3	 0.0	 0.0	 1	 -30.0	 30.0;
	1052	 3202	 0.003	 0.0222	 0.0335	 434.0	 434.0	 477.4	 0.0	 0.0	 1	 -30.0	 30.0;
	1061	 10619	 0.0004	 0.0008	 0.0001	 105.0	 105.0	 115.5	 0.0	 0.0	 1	 -30.0	 30.0;
	1062	 1072	 0.0	 0.0001	 0.0	 999.0	 999.0	 1098.9	 0.0	 0.0	 0	 -30.0	 30.0;
	1071	 2231	 0.0125	 0.0276	 0.0026	 105.0	 105.0	 115.5	 0.0	 0.0	 1	 -30.0	 30.0;
	1071	 2361	 0.0594	 0.1314	 0.0123	 105.0	 105.0	 115.5	 0.0	 0.0	 1	 -30.0	 30.0;
	1071	 4941	 0.0718	 0.1589	 0.0148	 105.0	 105.0	 115.5	 0.0	 0.0	 1	 -30.0	 30.0;
	1081	 32810	 0.0039	 0.0123	 0.0035	 68.0	 112.0	 123.2	 0.0	 0.0	 1	 -30.0	 30.0;
	1101	 2161	 0.0031	 0.0069	 0.0006	 45.0	 105.0	 115.5	 0.0	 0.0	 1	 -30.0	 30.0;
	1121	 1301	 0.0102	 0.0787	 0.0071	 136.0	 136.0	 149.6	 0.0	 0.0	 1	 -30.0	 30.0;
	1121	 1541	 0.0207	 0.0952	 0.0102	 137.0	 178.0	 195.8	 0.0	 0.0	 1	 -30.0	 30.0;
	1121	 4901	 0.0035	 0.0077	 0.0008	 34.0	 34.0	 37.4	 0.0	 0.0	 1	 -30.0	 30.0;
	1122	 1742	 0.0062	 0.0462	 0.0697	 434.0	 434.0	 477.4	 0.0	 0.0	 1	 -30.0	 30.0;
	1122	 3642	 0.0046	 0.0338	 0.051	 434.0	 434.0	 477.4	 0.0	 0.0	 1	 -30.0	 30.0;
	1141	 3501	 0.054	 0.123	 0.0116	 105.0	 105.0	 115.5	 0.0	 0.0	 1	 -30.0	 30.0;
	1141	 4941	 0.0135	 0.0696	 0.0113	 137.0	 178.0	 195.8	 0.0	 0.0	 1	 -30.0	 30.0;
	1141	 11461	 0.0	 0.0001	 0.0	 105.0	 105.0	 115.5	 0.0	 0.0	 1	 -30.0	 30.0;
	1161	 1781	 0.001	 0.002	 0.0011	 96.0	 96.0	 105.6	 0.0	 0.0	 1	 -30.0	 30.0;
	1161	 3901	 0.0173	 0.0894	 0.0097	 178.0	 178.0	 195.8	 0.0	 0.0	 1	 -30.0	 30.0;
	1161	 5051	 0.0006	 0.0012	 0.0061	 120.0	 120.0	 132.0	 0.0	 0.0	 1	 -30.0	 30.0;
	1161	 5071	 0.0006	 0.0012	 0.0061	 120.0	 120.0	 132.0	 0.0	 0.0	 1	 -30.0	 30.0;
	1161	 17810	 0.001	 0.0021	 0.0012	 96.0	 96.0	 105.6	 0.0	 0.0	 1	 -30.0	 30.0;
	1161	 51410	 0.0214	 0.1105	 0.012	 178.0	 178.0	 195.8	 0.0	 0.0	 1	 -30.0	 30.0;
	1181	 1861	 0.0644	 0.1424	 0.0133	 105.0	 105.0	 115.5	 0.0	 0.0	 1	 -30.0	 30.0;
	1181	 2821	 0.0193	 0.0994	 0.0108	 178.0	 178.0	 195.8	 0.0	 0.0	 1	 -30.0	 30.0;
	1181	 4221	 0.0381	 0.1969	 0.0214	 120.0	 120.0	 132.0	 0.0	 0.0	 1	 -30.0	 30.0;
	1181	 4961	 0.0292	 0.0645	 0.006	 80.0	 80.0	 88.0	 0.0	 0.0	 1	 -30.0	 30.0;
	1181	 4961	 0.0148	 0.0763	 0.0097	 178.0	 178.0	 195.8	 0.0	 0.0	 1	 -30.0	 30.0;
	1201	 2561	 0.0047	 0.0101	 0.0548	 120.0	 120.0	 132.0	 0.0	 0.0	 1	 -30.0	 30.0;
	1201	 3781	 0.0026	 0.0055	 0.0298	 120.0	 120.0	 132.0	 0.0	 0.0	 1	 -30.0	 30.0;
	1221	 1901	 0.0389	 0.086	 0.008	 105.0	 105.0	 115.5	 0.0	 0.0	 1	 -30.0	 30.0;
	1221	 4481	 0.0414	 0.0915	 0.0086	 105.0	 105.0	 115.5	 0.0	 0.0	 1	 -30.0	 30.0;
	1231	 1841	 0.0111	 0.03	 0.1366	 68.0	 116.0	 127.6	 0.0	 0.0	 1	 -30.0	 30.0;
	1251	 2361	 0.0373	 0.0826	 0.0077	 105.0	 105.0	 115.5	 0.0	 0.0	 1	 -30.0	 30.0;
	1251	 52219	 0.0305	 0.0674	 0.0063	 105.0	 105.0	 115.5	 0.0	 0.0	 1	 -30.0	 30.0;
	1271	 2041	 0.0106	 0.0546	 0.006	 178.0	 178.0	 195.8	 0.0	 0.0	 1	 -30.0	 30.0;
	1271	 2181	 0.0126	 0.065	 0.0071	 178.0	 178.0	 195.8	 0.0	 0.0	 1	 -30.0	 30.0;
	1281	 2221	 0.0426	 0.0943	 0.0098	 68.0	 105.0	 115.5	 0.0	 0.0	 1	 -30.0	 30.0;
	1301	 17411	 0.0148	 0.1159	 0.0104	 136.0	 136.0	 149.6	 0.0	 0.0	 1	 -30.0	 30.0;
	1321	 13219	 0.0006	 0.0017	 0.0002	 136.0	 136.0	 149.6	 0.0	 0.0	 1	 -30.0	 30.0;
	1341	 1701	 0.0533	 0.1178	 0.011	 105.0	 105.0	 115.5	 0.0	 0.0	 1	 -30.0	 30.0;
	1351	 4081	 0.0121	 0.0367	 0.031	 120.0	 120.0	 132.0	 0.0	 0.0	 1	 -30.0	 30.0;
	1351	 4201	 0.0073	 0.0214	 0.0295	 120.0	 120.0	 132.0	 0.0	 0.0	 1	 -30.0	 30.0;
	1361	 2001	 0.0312	 0.0751	 0.0073	 187.0	 187.0	 205.7	 0.0	 0.0	 1	 -30.0	 30.0;
	1361	 2161	 0.0176	 0.0389	 0.0037	 105.0	 105.0	 115.5	 0.0	 0.0	 1	 -30.0	 30.0;
...